MODEL 1
REMARK VINA RESULT:      -9.6      0.000      0.000
REMARK  4 active torsions:
REMARK  status: ('A' for Active; 'I' for Inactive)
REMARK    1  A    between atoms: O1_2  and  C14_18 
REMARK    2  A    between atoms: O2_3  and  C25_29 
REMARK    3  A    between atoms: C_4  and  C10_14 
REMARK    4  A    between atoms: C23_27  and  C25_29 
ROOT
ATOM      1  O   UNK d          -4.345 -10.538  11.683  0.00  0.00    -0.327 OA
ATOM      2  C10 UNK d          -1.852  -9.116   9.461  0.00  0.00     0.008 A 
ATOM      3  C11 UNK d          -3.071  -9.467  10.033  0.00  0.00    -0.038 A 
ATOM      4  C12 UNK d          -0.669  -9.545  10.052  0.00  0.00    -0.117 A 
ATOM      5  C13 UNK d          -3.101 -10.250  11.192  0.00  0.00     0.167 A 
ATOM      6  C14 UNK d          -0.705 -10.312  11.222  0.00  0.00     0.172 A 
ATOM      7  C15 UNK d          -1.923 -10.670  11.825  0.00  0.00    -0.125 A 
ATOM      8  C16 UNK d          -2.023 -11.444  13.072  0.00  0.00     0.005 A 
ATOM      9  C17 UNK d          -4.475 -11.716  12.512  0.00  0.00     0.207 C 
ATOM     10  C18 UNK d          -3.284 -11.962  13.436  0.00  0.00    -0.109 A 
ATOM     11  C19 UNK d          -0.928 -11.686  13.922  0.00  0.00     0.095 A 
ATOM     12  C20 UNK d          -5.777 -11.462  13.295  0.00  0.00     0.048 C 
ATOM     13  C21 UNK d          -4.680 -12.927  11.586  0.00  0.00     0.048 C 
ATOM     14  C22 UNK d          -3.405 -12.738  14.603  0.00  0.00     0.013 A 
ATOM     15  C23 UNK d          -1.068 -12.441  15.088  0.00  0.00    -0.087 A 
ATOM     16  C24 UNK d          -2.305 -12.972  15.426  0.00  0.00    -0.004 A 
ENDROOT
BRANCH   2  17
ATOM     17  C   UNK d          -1.815  -8.295   8.218  0.00  0.00    -0.006 C 
ATOM     18  C4  UNK d          -2.694  -8.926   7.094  0.00  0.00     0.028 C 
ATOM     19  C1  UNK d          -2.662  -8.084   5.807  0.00  0.00    -0.013 C 
ATOM     20  C7  UNK d          -1.216  -7.987   5.303  0.00  0.00     0.012 C 
ATOM     21  C8  UNK d          -3.194  -6.676   6.112  0.00  0.00     0.012 C 
ATOM     22  C3  UNK d          -0.334  -7.329   6.374  0.00  0.00    -0.013 C 
ATOM     23  C6  UNK d          -0.368  -8.179   7.656  0.00  0.00     0.028 C 
ATOM     24  C9  UNK d          -0.874  -5.922   6.683  0.00  0.00     0.012 C 
ATOM     25  C2  UNK d          -2.323  -6.012   7.187  0.00  0.00    -0.013 C 
ATOM     26  C5  UNK d          -2.363  -6.858   8.472  0.00  0.00     0.028 C 
ENDBRANCH   2  17
BRANCH   6  27
ATOM     27  O1  UNK d           0.517 -10.732  11.663  0.00  0.00    -0.494 OA
ATOM     28  H17 UNK d           0.720 -10.338  12.528  0.00  0.00     0.420 HD
ENDBRANCH   6  27
BRANCH  15  29
ATOM     29  C25 UNK d           0.109 -12.674  15.974  0.00  0.00     0.237 C 
BRANCH  29  30
ATOM     30  O2  UNK d           1.298 -12.313  15.284  0.00  0.00    -0.595 OA
ATOM     31  H29 UNK d           1.347 -12.872  14.489  0.00  0.00     0.400 HD
ENDBRANCH  29  30
ENDBRANCH  15  29
TORSDOF 4
ENDMDL
MODEL 2
REMARK VINA RESULT:      -7.0      1.519      3.047
REMARK  4 active torsions:
REMARK  status: ('A' for Active; 'I' for Inactive)
REMARK    1  A    between atoms: O1_2  and  C14_18 
REMARK    2  A    between atoms: O2_3  and  C25_29 
REMARK    3  A    between atoms: C_4  and  C10_14 
REMARK    4  A    between atoms: C23_27  and  C25_29 
ROOT
ATOM      1  O   UNK d          -0.253 -12.224  11.499  0.00  0.00    -0.327 OA
ATOM      2  C10 UNK d          -1.921  -9.413   9.922  0.00  0.00     0.008 A 
ATOM      3  C11 UNK d          -1.023 -10.442  10.186  0.00  0.00    -0.038 A 
ATOM      4  C12 UNK d          -2.975  -9.181  10.799  0.00  0.00    -0.117 A 
ATOM      5  C13 UNK d          -1.181 -11.233  11.329  0.00  0.00     0.167 A 
ATOM      6  C14 UNK d          -3.139  -9.987  11.930  0.00  0.00     0.172 A 
ATOM      7  C15 UNK d          -2.252 -11.041  12.213  0.00  0.00    -0.125 A 
ATOM      8  C16 UNK d          -2.393 -11.943  13.366  0.00  0.00     0.005 A 
ATOM      9  C17 UNK d          -0.038 -12.708  12.846  0.00  0.00     0.207 C 
ATOM     10  C18 UNK d          -1.309 -12.786  13.690  0.00  0.00    -0.109 A 
ATOM     11  C19 UNK d          -3.555 -12.013  14.157  0.00  0.00     0.095 A 
ATOM     12  C20 UNK d           0.606 -14.090  12.631  0.00  0.00     0.048 C 
ATOM     13  C21 UNK d           0.986 -11.782  13.523  0.00  0.00     0.048 C 
ATOM     14  C22 UNK d          -1.398 -13.634  14.809  0.00  0.00     0.013 A 
ATOM     15  C23 UNK d          -3.637 -12.874  15.252  0.00  0.00    -0.087 A 
ATOM     16  C24 UNK d          -2.556 -13.680  15.582  0.00  0.00    -0.004 A 
ENDROOT
BRANCH   2  17
ATOM     17  C   UNK d          -1.748  -8.558   8.714  0.00  0.00    -0.006 C 
ATOM     18  C4  UNK d          -2.593  -9.093   7.515  0.00  0.00     0.028 C 
ATOM     19  C1  UNK d          -2.421  -8.216   6.263  0.00  0.00    -0.013 C 
ATOM     20  C7  UNK d          -0.942  -8.204   5.854  0.00  0.00     0.012 C 
ATOM     21  C8  UNK d          -2.875  -6.785   6.584  0.00  0.00     0.012 C 
ATOM     22  C3  UNK d          -0.089  -7.642   6.999  0.00  0.00    -0.013 C 
ATOM     23  C6  UNK d          -0.263  -8.526   8.247  0.00  0.00     0.028 C 
ATOM     24  C9  UNK d          -0.551  -6.211   7.323  0.00  0.00     0.012 C 
ATOM     25  C2  UNK d          -2.033  -6.215   7.733  0.00  0.00    -0.013 C 
ATOM     26  C5  UNK d          -2.212  -7.095   8.983  0.00  0.00     0.028 C 
ENDBRANCH   2  17
BRANCH   6  27
ATOM     27  O1  UNK d          -4.165  -9.614  12.749  0.00  0.00    -0.494 OA
ATOM     28  H17 UNK d          -4.543 -10.390  13.196  0.00  0.00     0.420 HD
ENDBRANCH   6  27
BRANCH  15  29
ATOM     29  C25 UNK d          -4.884 -12.931  16.067  0.00  0.00     0.237 C 
BRANCH  29  30
ATOM     30  O2  UNK d          -5.035 -11.715  16.787  0.00  0.00    -0.595 OA
ATOM     31  H29 UNK d          -5.770 -11.229  16.376  0.00  0.00     0.400 HD
ENDBRANCH  29  30
ENDBRANCH  15  29
TORSDOF 4
ENDMDL
