MODEL 1
REMARK VINA RESULT:      -8.7      0.000      0.000
REMARK  6 active torsions:
REMARK  status: ('A' for Active; 'I' for Inactive)
REMARK    1  A    between atoms: O1_2  and  C20_25 
REMARK       I    between atoms: N_3  and  C10_15 
REMARK    2  A    between atoms: N1_4  and  C8_13 
REMARK    3  A    between atoms: C8_13  and  C12_17 
REMARK    4  A    between atoms: C10_15  and  C11_16 
REMARK    5  A    between atoms: C12_17  and  C16_21 
REMARK    6  A    between atoms: C16_21  and  C19_24 
ROOT
ATOM      1  N1  UNK d          -3.521  -4.549  11.253  0.00  0.00    -0.066 N 
ATOM      2  C5  UNK d          -3.656  -3.362  10.572  0.00  0.00     0.001 A 
ATOM      3  C6  UNK d          -2.371  -2.861  10.358  0.00  0.00    -0.072 A 
ATOM      4  C7  UNK d          -2.195  -4.832  11.485  0.00  0.00     0.024 A 
ATOM      5  C9  UNK d          -1.448  -3.790  10.935  0.00  0.00    -0.110 A 
ATOM      6  C11 UNK d          -3.375  -0.964   9.228  0.00  0.00    -0.163 A 
ATOM      7  C13 UNK d          -2.232  -1.636   9.671  0.00  0.00     0.112 A 
ATOM      8  C14 UNK d          -4.809  -2.701  10.135  0.00  0.00    -0.022 A 
ATOM      9  C15 UNK d          -4.644  -1.490   9.458  0.00  0.00     0.064 A 
ATOM     10  C17 UNK d          -1.608  -5.923  12.135  0.00  0.00    -0.088 A 
ATOM     11  C18 UNK d          -0.042  -3.839  11.039  0.00  0.00     0.097 A 
ATOM     12  C20 UNK d          -0.214  -5.948  12.227  0.00  0.00     0.153 A 
ATOM     13  C21 UNK d           0.560  -4.924  11.688  0.00  0.00    -0.031 A 
ENDROOT
BRANCH   6  14
ATOM     14  C10 UNK d          -3.235   0.311   8.514  0.00  0.00     0.667 C 
ATOM     15  O   UNK d          -4.014   0.501   7.581  0.00  0.00    -0.597 OA
ATOM     16  N   UNK d          -2.236   1.194   8.932  0.00  0.00    -0.452 N 
ATOM     17  C3  UNK d          -1.341   0.809  10.024  0.00  0.00     0.197 C 
ATOM     18  C4  UNK d          -1.943   2.502   8.332  0.00  0.00     0.197 C 
ATOM     19  C2  UNK d          -1.347   1.869  11.123  0.00  0.00    -0.004 C 
ATOM     20  C   UNK d          -1.040   3.256  10.560  0.00  0.00     0.005 C 
ATOM     21  C1  UNK d          -1.970   3.597   9.396  0.00  0.00    -0.004 C 
ENDBRANCH   6  14
BRANCH   1  22
ATOM     22  C8  UNK d          -4.625  -5.390  11.668  0.00  0.00     0.158 C 
BRANCH  22  23
ATOM     23  C12 UNK d          -5.567  -4.721  12.676  0.00  0.00    -0.001 C 
BRANCH  23  24
ATOM     24  C16 UNK d          -4.961  -4.608  14.078  0.00  0.00     0.002 C 
BRANCH  24  25
ATOM     25  C19 UNK d          -4.446  -3.193  14.345  0.00  0.00     0.004 C 
ATOM     26  C22 UNK d          -2.958  -3.192  14.659  0.00  0.00     0.010 C 
ENDBRANCH  24  25
ENDBRANCH  23  24
ENDBRANCH  22  23
ENDBRANCH   1  22
BRANCH  12  27
ATOM     27  O1  UNK d           0.398  -6.993  12.855  0.00  0.00    -0.326 OA
ATOM     28  C23 UNK d           0.470  -6.939  14.278  0.00  0.00     0.247 C 
ENDBRANCH  12  27
TORSDOF 6
ENDMDL
MODEL 2
REMARK VINA RESULT:      -8.4      2.182      7.204
REMARK  6 active torsions:
REMARK  status: ('A' for Active; 'I' for Inactive)
REMARK    1  A    between atoms: O1_2  and  C20_25 
REMARK       I    between atoms: N_3  and  C10_15 
REMARK    2  A    between atoms: N1_4  and  C8_13 
REMARK    3  A    between atoms: C8_13  and  C12_17 
REMARK    4  A    between atoms: C10_15  and  C11_16 
REMARK    5  A    between atoms: C12_17  and  C16_21 
REMARK    6  A    between atoms: C16_21  and  C19_24 
ROOT
ATOM      1  N1  UNK d          -4.510  -2.061   9.431  0.00  0.00    -0.066 N 
ATOM      2  C5  UNK d          -4.303  -2.937  10.470  0.00  0.00     0.001 A 
ATOM      3  C6  UNK d          -2.992  -2.753  10.911  0.00  0.00    -0.072 A 
ATOM      4  C7  UNK d          -3.379  -1.319   9.185  0.00  0.00     0.024 A 
ATOM      5  C9  UNK d          -2.408  -1.731  10.098  0.00  0.00    -0.110 A 
ATOM      6  C11 UNK d          -3.381  -4.478  12.571  0.00  0.00    -0.163 A 
ATOM      7  C13 UNK d          -2.524  -3.543  11.983  0.00  0.00     0.112 A 
ATOM      8  C14 UNK d          -5.172  -3.870  11.048  0.00  0.00    -0.022 A 
ATOM      9  C15 UNK d          -4.685  -4.639  12.108  0.00  0.00     0.064 A 
ATOM     10  C17 UNK d          -3.146  -0.323   8.230  0.00  0.00    -0.088 A 
ATOM     11  C18 UNK d          -1.138  -1.117  10.056  0.00  0.00     0.097 A 
ATOM     12  C20 UNK d          -1.881   0.269   8.207  0.00  0.00     0.153 A 
ATOM     13  C21 UNK d          -0.890  -0.119   9.105  0.00  0.00    -0.031 A 
ENDROOT
BRANCH   6  14
ATOM     14  C10 UNK d          -2.898  -5.302  13.687  0.00  0.00     0.667 C 
ATOM     15  O   UNK d          -3.726  -5.587  14.551  0.00  0.00    -0.597 OA
ATOM     16  N   UNK d          -1.555  -5.684  13.690  0.00  0.00    -0.452 N 
ATOM     17  C3  UNK d          -0.668  -5.222  12.621  0.00  0.00     0.197 C 
ATOM     18  C4  UNK d          -0.897  -6.494  14.724  0.00  0.00     0.197 C 
ATOM     19  C2  UNK d           0.031  -6.404  11.953  0.00  0.00    -0.004 C 
ATOM     20  C   UNK d           0.742  -7.282  12.982  0.00  0.00     0.005 C 
ATOM     21  C1  UNK d          -0.210  -7.705  14.099  0.00  0.00    -0.004 C 
ENDBRANCH   6  14
BRANCH   1  22
ATOM     22  C8  UNK d          -5.752  -1.936   8.695  0.00  0.00     0.158 C 
BRANCH  22  23
ATOM     23  C12 UNK d          -5.610  -2.197   7.191  0.00  0.00    -0.001 C 
BRANCH  23  24
ATOM     24  C16 UNK d          -6.432  -3.396   6.711  0.00  0.00     0.002 C 
BRANCH  24  25
ATOM     25  C19 UNK d          -5.543  -4.618   6.476  0.00  0.00     0.004 C 
ATOM     26  C22 UNK d          -4.070  -4.243   6.476  0.00  0.00     0.010 C 
ENDBRANCH  24  25
ENDBRANCH  23  24
ENDBRANCH  22  23
ENDBRANCH   1  22
BRANCH  12  27
ATOM     27  O1  UNK d          -1.613   1.243   7.290  0.00  0.00    -0.326 OA
ATOM     28  C23 UNK d          -1.616   2.590   7.759  0.00  0.00     0.247 C 
ENDBRANCH  12  27
TORSDOF 6
ENDMDL
MODEL 3
REMARK VINA RESULT:      -6.8      1.531      2.048
REMARK  6 active torsions:
REMARK  status: ('A' for Active; 'I' for Inactive)
REMARK    1  A    between atoms: O1_2  and  C20_25 
REMARK       I    between atoms: N_3  and  C10_15 
REMARK    2  A    between atoms: N1_4  and  C8_13 
REMARK    3  A    between atoms: C8_13  and  C12_17 
REMARK    4  A    between atoms: C10_15  and  C11_16 
REMARK    5  A    between atoms: C12_17  and  C16_21 
REMARK    6  A    between atoms: C16_21  and  C19_24 
ROOT
ATOM      1  N1  UNK d          -3.294  -4.831  11.641  0.00  0.00    -0.066 N 
ATOM      2  C5  UNK d          -2.922  -3.688  10.972  0.00  0.00     0.001 A 
ATOM      3  C6  UNK d          -1.597  -3.421  11.317  0.00  0.00    -0.072 A 
ATOM      4  C7  UNK d          -2.255  -5.310  12.405  0.00  0.00     0.024 A 
ATOM      5  C9  UNK d          -1.176  -4.445  12.223  0.00  0.00    -0.110 A 
ATOM      6  C11 UNK d          -1.690  -1.469   9.880  0.00  0.00    -0.163 A 
ATOM      7  C13 UNK d          -0.971  -2.286  10.758  0.00  0.00     0.112 A 
ATOM      8  C14 UNK d          -3.655  -2.879  10.096  0.00  0.00    -0.022 A 
ATOM      9  C15 UNK d          -3.013  -1.763   9.556  0.00  0.00     0.064 A 
ATOM     10  C17 UNK d          -2.193  -6.434  13.236  0.00  0.00    -0.088 A 
ATOM     11  C18 UNK d           0.029  -4.717  12.905  0.00  0.00     0.097 A 
ATOM     12  C20 UNK d          -0.990  -6.681  13.902  0.00  0.00     0.153 A 
ATOM     13  C21 UNK d           0.106  -5.837  13.741  0.00  0.00    -0.031 A 
ENDROOT
BRANCH   6  14
ATOM     14  C10 UNK d          -1.043  -0.287   9.296  0.00  0.00     0.667 C 
ATOM     15  O   UNK d           0.150  -0.402   9.018  0.00  0.00    -0.597 OA
ATOM     16  N   UNK d          -1.814   0.863   9.114  0.00  0.00    -0.452 N 
ATOM     17  C3  UNK d          -3.212   0.874   9.546  0.00  0.00     0.197 C 
ATOM     18  C4  UNK d          -1.335   2.136   8.558  0.00  0.00     0.197 C 
ATOM     19  C2  UNK d          -4.127   1.286   8.395  0.00  0.00    -0.004 C 
ATOM     20  C   UNK d          -3.682   2.612   7.779  0.00  0.00     0.005 C 
ATOM     21  C1  UNK d          -2.207   2.568   7.382  0.00  0.00    -0.004 C 
ENDBRANCH   6  14
BRANCH   1  22
ATOM     22  C8  UNK d          -4.602  -5.448  11.552  0.00  0.00     0.158 C 
BRANCH  22  23
ATOM     23  C12 UNK d          -5.694  -4.696  12.322  0.00  0.00    -0.001 C 
BRANCH  23  24
ATOM     24  C16 UNK d          -5.669  -4.980  13.827  0.00  0.00     0.002 C 
BRANCH  24  25
ATOM     25  C19 UNK d          -5.575  -3.684  14.633  0.00  0.00     0.004 C 
ATOM     26  C22 UNK d          -4.160  -3.127  14.627  0.00  0.00     0.010 C 
ENDBRANCH  24  25
ENDBRANCH  23  24
ENDBRANCH  22  23
ENDBRANCH   1  22
BRANCH  12  27
ATOM     27  O1  UNK d          -0.888  -7.765  14.723  0.00  0.00    -0.326 OA
ATOM     28  C23 UNK d          -1.923  -8.743  14.633  0.00  0.00     0.247 C 
ENDBRANCH  12  27
TORSDOF 6
ENDMDL
MODEL 4
REMARK VINA RESULT:      -5.7      2.113      7.437
REMARK  6 active torsions:
REMARK  status: ('A' for Active; 'I' for Inactive)
REMARK    1  A    between atoms: O1_2  and  C20_25 
REMARK       I    between atoms: N_3  and  C10_15 
REMARK    2  A    between atoms: N1_4  and  C8_13 
REMARK    3  A    between atoms: C8_13  and  C12_17 
REMARK    4  A    between atoms: C10_15  and  C11_16 
REMARK    5  A    between atoms: C12_17  and  C16_21 
REMARK    6  A    between atoms: C16_21  and  C19_24 
ROOT
ATOM      1  N1  UNK d          -3.452  -1.436   8.708  0.00  0.00    -0.066 N 
ATOM      2  C5  UNK d          -3.026  -2.225   9.750  0.00  0.00     0.001 A 
ATOM      3  C6  UNK d          -2.174  -1.447  10.535  0.00  0.00    -0.072 A 
ATOM      4  C7  UNK d          -2.906  -0.176   8.793  0.00  0.00     0.024 A 
ATOM      5  C9  UNK d          -2.098  -0.153   9.930  0.00  0.00    -0.110 A 
ATOM      6  C11 UNK d          -1.888  -3.361  11.998  0.00  0.00    -0.163 A 
ATOM      7  C13 UNK d          -1.594  -2.030  11.682  0.00  0.00     0.112 A 
ATOM      8  C14 UNK d          -3.328  -3.557  10.053  0.00  0.00    -0.022 A 
ATOM      9  C15 UNK d          -2.742  -4.111  11.194  0.00  0.00     0.064 A 
ATOM     10  C17 UNK d          -3.065   0.932   7.954  0.00  0.00    -0.088 A 
ATOM     11  C18 UNK d          -1.413   1.040  10.247  0.00  0.00     0.097 A 
ATOM     12  C20 UNK d          -2.376   2.101   8.288  0.00  0.00     0.153 A 
ATOM     13  C21 UNK d          -1.562   2.157   9.417  0.00  0.00    -0.031 A 
ENDROOT
BRANCH   6  14
ATOM     14  C10 UNK d          -1.286  -3.972  13.190  0.00  0.00     0.667 C 
ATOM     15  O   UNK d          -1.670  -3.539  14.276  0.00  0.00    -0.597 OA
ATOM     16  N   UNK d          -0.331  -4.974  13.006  0.00  0.00    -0.452 N 
ATOM     17  C3  UNK d           0.071  -5.350  11.649  0.00  0.00     0.197 C 
ATOM     18  C4  UNK d           0.381  -5.686  14.075  0.00  0.00     0.197 C 
ATOM     19  C2  UNK d          -0.093  -6.853  11.436  0.00  0.00    -0.004 C 
ATOM     20  C   UNK d           0.636  -7.650  12.518  0.00  0.00     0.005 C 
ATOM     21  C1  UNK d           0.216  -7.195  13.915  0.00  0.00    -0.004 C 
ENDBRANCH   6  14
BRANCH   1  22
ATOM     22  C8  UNK d          -4.356  -1.871   7.663  0.00  0.00     0.158 C 
BRANCH  22  23
ATOM     23  C12 UNK d          -3.968  -3.211   7.027  0.00  0.00    -0.001 C 
BRANCH  23  24
ATOM     24  C16 UNK d          -5.179  -4.035   6.581  0.00  0.00     0.002 C 
BRANCH  24  25
ATOM     25  C19 UNK d          -6.487  -3.292   6.859  0.00  0.00     0.004 C 
ATOM     26  C22 UNK d          -6.556  -2.806   8.297  0.00  0.00     0.010 C 
ENDBRANCH  24  25
ENDBRANCH  23  24
ENDBRANCH  22  23
ENDBRANCH   1  22
BRANCH  12  27
ATOM     27  O1  UNK d          -2.504   3.204   7.495  0.00  0.00    -0.326 OA
ATOM     28  C23 UNK d          -1.355   3.597   6.746  0.00  0.00     0.247 C 
ENDBRANCH  12  27
TORSDOF 6
ENDMDL
