MODEL 1
REMARK VINA RESULT:      -9.4      0.000      0.000
REMARK  5 active torsions:
REMARK  status: ('A' for Active; 'I' for Inactive)
REMARK    1  A    between atoms: O1_2  and  C12_15 
REMARK    2  A    between atoms: C14_17  and  C16_19 
REMARK    3  A    between atoms: C16_19  and  C17_20 
REMARK    4  A    between atoms: C17_20  and  C18_21 
REMARK    5  A    between atoms: C18_21  and  C19_22 
ROOT
ATOM      1  O   UNK d           0.283 -11.107  11.728  0.00  0.00    -0.328 OA
ATOM      2  C   UNK d          -1.491 -12.292  13.029  0.00  0.00    -0.167 C 
ATOM      3  C1  UNK d          -3.936 -12.108  14.570  0.00  0.00    -0.016 C 
ATOM      4  C2  UNK d          -0.100 -12.330  12.397  0.00  0.00     0.205 C 
ATOM      5  C3  UNK d          -2.410 -11.379  12.656  0.00  0.00    -0.003 C 
ATOM      6  C4  UNK d          -3.787 -11.299  13.271  0.00  0.00     0.097 C 
ATOM      7  C5  UNK d          -1.810 -13.347  14.072  0.00  0.00     0.066 C 
ATOM      8  C6  UNK d          -3.298 -13.484  14.396  0.00  0.00     0.012 C 
ATOM      9  C7  UNK d          -2.046 -10.437  11.582  0.00  0.00    -0.148 A 
ATOM     10  C8  UNK d          -0.712 -10.351  11.176  0.00  0.00     0.175 A 
ATOM     11  C9  UNK d          -5.404 -12.226  14.971  0.00  0.00     0.012 C 
ATOM     12  C10 UNK d           0.999 -12.528  13.455  0.00  0.00     0.044 C 
ATOM     13  C11 UNK d          -0.007 -13.457  11.355  0.00  0.00     0.044 C 
ATOM     14  C12 UNK d          -2.981  -9.600  10.953  0.00  0.00     0.172 A 
ATOM     15  C13 UNK d          -0.312  -9.438  10.196  0.00  0.00    -0.042 A 
ATOM     16  C14 UNK d          -1.252  -8.613   9.584  0.00  0.00    -0.004 A 
ATOM     17  C15 UNK d          -2.588  -8.699   9.960  0.00  0.00    -0.119 A 
ENDROOT
BRANCH  16  18
ATOM     18  C16 UNK d          -0.829  -7.647   8.531  0.00  0.00     0.061 C 
BRANCH  18  19
ATOM     19  C17 UNK d           0.063  -8.254   7.432  0.00  0.00     0.014 C 
BRANCH  19  20
ATOM     20  C18 UNK d          -0.521  -8.071   6.027  0.00  0.00    -0.001 C 
BRANCH  20  21
ATOM     21  C19 UNK d          -2.031  -8.311   6.021  0.00  0.00    -0.002 C 
ATOM     22  C20 UNK d          -2.761  -7.252   5.210  0.00  0.00     0.006 C 
ENDBRANCH  20  21
ENDBRANCH  19  20
ENDBRANCH  18  19
ENDBRANCH  16  18
BRANCH  14  23
ATOM     23  O1  UNK d          -4.321  -9.620  11.213  0.00  0.00    -0.497 OA
ATOM     24  H24 UNK d          -4.489  -9.376  12.138  0.00  0.00     0.419 HD
ENDBRANCH  14  23
TORSDOF 5
ENDMDL
MODEL 2
REMARK VINA RESULT:      -7.0      1.509      6.698
REMARK  5 active torsions:
REMARK  status: ('A' for Active; 'I' for Inactive)
REMARK    1  A    between atoms: O1_2  and  C12_15 
REMARK    2  A    between atoms: C14_17  and  C16_19 
REMARK    3  A    between atoms: C16_19  and  C17_20 
REMARK    4  A    between atoms: C17_20  and  C18_21 
REMARK    5  A    between atoms: C18_21  and  C19_22 
ROOT
ATOM      1  O   UNK d          -0.954 -11.888  11.758  0.00  0.00    -0.328 OA
ATOM      2  C   UNK d          -0.565  -9.942  10.241  0.00  0.00    -0.167 C 
ATOM      3  C1  UNK d          -1.590  -8.223   8.148  0.00  0.00    -0.016 C 
ATOM      4  C2  UNK d           0.023 -10.988  11.187  0.00  0.00     0.205 C 
ATOM      5  C3  UNK d          -1.878  -9.635  10.257  0.00  0.00    -0.003 C 
ATOM      6  C4  UNK d          -2.497  -8.621   9.325  0.00  0.00     0.097 C 
ATOM      7  C5  UNK d           0.395  -9.235   9.303  0.00  0.00     0.066 C 
ATOM      8  C6  UNK d          -0.172  -7.973   8.653  0.00  0.00     0.012 C 
ATOM      9  C7  UNK d          -2.730 -10.312  11.251  0.00  0.00    -0.148 A 
ATOM     10  C8  UNK d          -2.219 -11.409  11.950  0.00  0.00     0.175 A 
ATOM     11  C9  UNK d          -2.145  -6.997   7.426  0.00  0.00     0.012 C 
ATOM     12  C10 UNK d           1.003 -11.924  10.460  0.00  0.00     0.044 C 
ATOM     13  C11 UNK d           0.748 -10.311  12.362  0.00  0.00     0.044 C 
ATOM     14  C12 UNK d          -4.050  -9.917  11.519  0.00  0.00     0.172 A 
ATOM     15  C13 UNK d          -3.006 -12.113  12.866  0.00  0.00    -0.042 A 
ATOM     16  C14 UNK d          -4.314 -11.709  13.118  0.00  0.00    -0.004 A 
ATOM     17  C15 UNK d          -4.833 -10.607  12.447  0.00  0.00    -0.119 A 
ENDROOT
BRANCH  16  18
ATOM     18  C16 UNK d          -5.150 -12.452  14.103  0.00  0.00     0.061 C 
BRANCH  18  19
ATOM     19  C17 UNK d          -5.490 -11.656  15.377  0.00  0.00     0.014 C 
BRANCH  19  20
ATOM     20  C18 UNK d          -4.286 -11.484  16.308  0.00  0.00    -0.001 C 
BRANCH  20  21
ATOM     21  C19 UNK d          -3.760 -12.838  16.787  0.00  0.00    -0.002 C 
ATOM     22  C20 UNK d          -2.292 -13.023  16.433  0.00  0.00     0.006 C 
ENDBRANCH  20  21
ENDBRANCH  19  20
ENDBRANCH  18  19
ENDBRANCH  16  18
BRANCH  14  23
ATOM     23  O1  UNK d          -4.653  -8.833  10.951  0.00  0.00    -0.497 OA
ATOM     24  H24 UNK d          -5.071  -9.083  10.110  0.00  0.00     0.419 HD
ENDBRANCH  14  23
TORSDOF 5
ENDMDL
MODEL 3
REMARK VINA RESULT:      -6.8      1.096      1.455
REMARK  5 active torsions:
REMARK  status: ('A' for Active; 'I' for Inactive)
REMARK    1  A    between atoms: O1_2  and  C12_15 
REMARK    2  A    between atoms: C14_17  and  C16_19 
REMARK    3  A    between atoms: C16_19  and  C17_20 
REMARK    4  A    between atoms: C17_20  and  C18_21 
REMARK    5  A    between atoms: C18_21  and  C19_22 
ROOT
ATOM      1  O   UNK d          -0.027 -11.427  12.321  0.00  0.00    -0.328 OA
ATOM      2  C   UNK d          -1.328 -12.845  13.915  0.00  0.00    -0.167 C 
ATOM      3  C1  UNK d          -3.352 -12.983  15.982  0.00  0.00    -0.016 C 
ATOM      4  C2  UNK d          -0.126 -12.710  12.981  0.00  0.00     0.205 C 
ATOM      5  C3  UNK d          -2.391 -12.020  13.820  0.00  0.00    -0.003 C 
ATOM      6  C4  UNK d          -3.588 -12.112  14.737  0.00  0.00     0.097 C 
ATOM      7  C5  UNK d          -1.294 -13.968  14.934  0.00  0.00     0.066 C 
ATOM      8  C6  UNK d          -2.645 -14.275  15.580  0.00  0.00     0.012 C 
ATOM      9  C7  UNK d          -2.378 -11.004  12.752  0.00  0.00    -0.148 A 
ATOM     10  C8  UNK d          -1.190 -10.761  12.059  0.00  0.00     0.175 A 
ATOM     11  C9  UNK d          -4.668 -13.272  16.699  0.00  0.00     0.012 C 
ATOM     12  C10 UNK d           1.203 -12.832  13.746  0.00  0.00     0.044 C 
ATOM     13  C11 UNK d          -0.173 -13.779  11.876  0.00  0.00     0.044 C 
ATOM     14  C12 UNK d          -3.509 -10.248  12.408  0.00  0.00     0.172 A 
ATOM     15  C13 UNK d          -1.118  -9.772  11.073  0.00  0.00    -0.042 A 
ATOM     16  C14 UNK d          -2.248  -9.029  10.745  0.00  0.00    -0.004 A 
ATOM     17  C15 UNK d          -3.446  -9.271  11.411  0.00  0.00    -0.119 A 
ENDROOT
BRANCH  16  18
ATOM     18  C16 UNK d          -2.176  -7.983   9.687  0.00  0.00     0.061 C 
BRANCH  18  19
ATOM     19  C17 UNK d          -0.824  -7.910   8.954  0.00  0.00     0.014 C 
BRANCH  19  20
ATOM     20  C18 UNK d          -0.954  -7.389   7.519  0.00  0.00    -0.001 C 
BRANCH  20  21
ATOM     21  C19 UNK d          -1.345  -8.511   6.557  0.00  0.00    -0.002 C 
ATOM     22  C20 UNK d          -2.836  -8.493   6.257  0.00  0.00     0.006 C 
ENDBRANCH  20  21
ENDBRANCH  19  20
ENDBRANCH  18  19
ENDBRANCH  16  18
BRANCH  14  23
ATOM     23  O1  UNK d          -4.743 -10.420  12.965  0.00  0.00    -0.497 OA
ATOM     24  H24 UNK d          -5.428 -10.419  12.275  0.00  0.00     0.419 HD
ENDBRANCH  14  23
TORSDOF 5
ENDMDL
MODEL 4
REMARK VINA RESULT:      -6.4      1.598      2.109
REMARK  5 active torsions:
REMARK  status: ('A' for Active; 'I' for Inactive)
REMARK    1  A    between atoms: O1_2  and  C12_15 
REMARK    2  A    between atoms: C14_17  and  C16_19 
REMARK    3  A    between atoms: C16_19  and  C17_20 
REMARK    4  A    between atoms: C17_20  and  C18_21 
REMARK    5  A    between atoms: C18_21  and  C19_22 
ROOT
ATOM      1  O   UNK d           0.226  -9.931  10.503  0.00  0.00    -0.328 OA
ATOM      2  C   UNK d          -1.173 -11.124  12.195  0.00  0.00    -0.167 C 
ATOM      3  C1  UNK d          -3.577 -11.146  13.810  0.00  0.00    -0.016 C 
ATOM      4  C2  UNK d           0.178 -10.983  11.494  0.00  0.00     0.205 C 
ATOM      5  C3  UNK d          -2.300 -10.606  11.665  0.00  0.00    -0.003 C 
ATOM      6  C4  UNK d          -3.648 -10.710  12.337  0.00  0.00     0.097 C 
ATOM      7  C5  UNK d          -1.203 -11.901  13.497  0.00  0.00     0.066 C 
ATOM      8  C6  UNK d          -2.603 -12.313  13.955  0.00  0.00     0.012 C 
ATOM      9  C7  UNK d          -2.197  -9.931  10.358  0.00  0.00    -0.148 A 
ATOM     10  C8  UNK d          -0.933  -9.628   9.847  0.00  0.00     0.175 A 
ATOM     11  C9  UNK d          -4.963 -11.514  14.335  0.00  0.00     0.012 C 
ATOM     12  C10 UNK d           1.293 -10.605  12.484  0.00  0.00     0.044 C 
ATOM     13  C11 UNK d           0.558 -12.290  10.779  0.00  0.00     0.044 C 
ATOM     14  C12 UNK d          -3.320  -9.558   9.603  0.00  0.00     0.172 A 
ATOM     15  C13 UNK d          -0.788  -8.945   8.636  0.00  0.00    -0.042 A 
ATOM     16  C14 UNK d          -1.912  -8.579   7.901  0.00  0.00    -0.004 A 
ATOM     17  C15 UNK d          -3.179  -8.891   8.384  0.00  0.00    -0.119 A 
ENDROOT
BRANCH  16  18
ATOM     18  C16 UNK d          -1.759  -7.862   6.604  0.00  0.00     0.061 C 
BRANCH  18  19
ATOM     19  C17 UNK d          -1.152  -6.451   6.725  0.00  0.00     0.014 C 
BRANCH  19  20
ATOM     20  C18 UNK d          -2.217  -5.354   6.817  0.00  0.00    -0.001 C 
BRANCH  20  21
ATOM     21  C19 UNK d          -2.538  -5.016   8.273  0.00  0.00    -0.002 C 
ATOM     22  C20 UNK d          -1.282  -4.659   9.052  0.00  0.00     0.006 C 
ENDBRANCH  20  21
ENDBRANCH  19  20
ENDBRANCH  18  19
ENDBRANCH  16  18
BRANCH  14  23
ATOM     23  O1  UNK d          -4.608  -9.841   9.957  0.00  0.00    -0.497 OA
ATOM     24  H24 UNK d          -5.196  -9.111   9.702  0.00  0.00     0.419 HD
ENDBRANCH  14  23
TORSDOF 5
ENDMDL
