MODEL 1
REMARK VINA RESULT:      -9.7      0.000      0.000
REMARK  6 active torsions:
REMARK  status: ('A' for Active; 'I' for Inactive)
REMARK    1  A    between atoms: O1_2  and  C20_25 
REMARK       I    between atoms: N_3  and  C10_15 
REMARK    2  A    between atoms: N1_4  and  C8_13 
REMARK    3  A    between atoms: C8_13  and  C12_17 
REMARK    4  A    between atoms: C10_15  and  C11_16 
REMARK    5  A    between atoms: C12_17  and  C16_21 
REMARK    6  A    between atoms: C16_21  and  C19_24 
ROOT
ATOM      1  N1  UNK d          -1.143 -10.999  12.046  0.00  0.00    -0.066 N 
ATOM      2  C5  UNK d          -1.174  -9.986  11.117  0.00  0.00     0.001 A 
ATOM      3  C6  UNK d          -2.486  -9.512  11.068  0.00  0.00    -0.072 A 
ATOM      4  C7  UNK d          -2.387 -11.196  12.598  0.00  0.00     0.024 A 
ATOM      5  C9  UNK d          -3.252 -10.277  12.004  0.00  0.00    -0.110 A 
ATOM      6  C11 UNK d          -1.774  -7.919   9.382  0.00  0.00    -0.163 A 
ATOM      7  C13 UNK d          -2.789  -8.457  10.181  0.00  0.00     0.112 A 
ATOM      8  C14 UNK d          -0.149  -9.459  10.324  0.00  0.00    -0.022 A 
ATOM      9  C15 UNK d          -0.474  -8.415   9.454  0.00  0.00     0.064 A 
ATOM     10  C17 UNK d          -2.806 -12.111  13.569  0.00  0.00    -0.088 A 
ATOM     11  C18 UNK d          -4.606 -10.270  12.400  0.00  0.00     0.097 A 
ATOM     12  C20 UNK d          -4.152 -12.086  13.945  0.00  0.00     0.153 A 
ATOM     13  C21 UNK d          -5.041 -11.181  13.371  0.00  0.00    -0.031 A 
ENDROOT
BRANCH   6  14
ATOM     14  C10 UNK d          -2.084  -6.822   8.458  0.00  0.00     0.667 C 
ATOM     15  O   UNK d          -2.231  -5.710   8.963  0.00  0.00    -0.597 OA
ATOM     16  N   UNK d          -2.200  -7.119   7.098  0.00  0.00    -0.452 N 
ATOM     17  C3  UNK d          -2.057  -8.504   6.645  0.00  0.00     0.197 C 
ATOM     18  C4  UNK d          -2.516  -6.157   6.034  0.00  0.00     0.197 C 
ATOM     19  C2  UNK d          -0.992  -8.605   5.555  0.00  0.00    -0.004 C 
ATOM     20  C   UNK d          -1.272  -7.629   4.413  0.00  0.00     0.005 C 
ATOM     21  C1  UNK d          -1.456  -6.205   4.936  0.00  0.00    -0.004 C 
ENDBRANCH   6  14
BRANCH   1  22
ATOM     22  C8  UNK d           0.042 -11.757  12.396  0.00  0.00     0.158 C 
BRANCH  22  23
ATOM     23  C12 UNK d           0.572 -12.639  11.260  0.00  0.00    -0.001 C 
BRANCH  23  24
ATOM     24  C16 UNK d           0.164 -14.108  11.402  0.00  0.00     0.002 C 
BRANCH  24  25
ATOM     25  C19 UNK d           0.397 -14.612  12.827  0.00  0.00     0.004 C 
ATOM     26  C22 UNK d          -0.913 -14.782  13.579  0.00  0.00     0.010 C 
ENDBRANCH  24  25
ENDBRANCH  23  24
ENDBRANCH  22  23
ENDBRANCH   1  22
BRANCH  12  27
ATOM     27  O1  UNK d          -4.601 -12.964  14.888  0.00  0.00    -0.326 OA
ATOM     28  C23 UNK d          -4.275 -12.675  16.246  0.00  0.00     0.247 C 
ENDBRANCH  12  27
TORSDOF 6
ENDMDL
MODEL 2
REMARK VINA RESULT:      -8.5      1.442      3.445
REMARK  6 active torsions:
REMARK  status: ('A' for Active; 'I' for Inactive)
REMARK    1  A    between atoms: O1_2  and  C20_25 
REMARK       I    between atoms: N_3  and  C10_15 
REMARK    2  A    between atoms: N1_4  and  C8_13 
REMARK    3  A    between atoms: C8_13  and  C12_17 
REMARK    4  A    between atoms: C10_15  and  C11_16 
REMARK    5  A    between atoms: C12_17  and  C16_21 
REMARK    6  A    between atoms: C16_21  and  C19_24 
ROOT
ATOM      1  N1  UNK d          -2.880 -10.848  11.856  0.00  0.00    -0.066 N 
ATOM      2  C5  UNK d          -2.792  -9.749  11.034  0.00  0.00     0.001 A 
ATOM      3  C6  UNK d          -1.457  -9.628  10.647  0.00  0.00    -0.072 A 
ATOM      4  C7  UNK d          -1.648 -11.440  12.012  0.00  0.00     0.024 A 
ATOM      5  C9  UNK d          -0.735 -10.696  11.265  0.00  0.00    -0.110 A 
ATOM      6  C11 UNK d          -2.082  -7.670   9.357  0.00  0.00    -0.163 A 
ATOM      7  C13 UNK d          -1.098  -8.565   9.791  0.00  0.00     0.112 A 
ATOM      8  C14 UNK d          -3.787  -8.861  10.609  0.00  0.00    -0.022 A 
ATOM      9  C15 UNK d          -3.406  -7.818   9.762  0.00  0.00     0.064 A 
ATOM     10  C17 UNK d          -1.280 -12.568  12.754  0.00  0.00    -0.088 A 
ATOM     11  C18 UNK d           0.618 -11.100  11.257  0.00  0.00     0.097 A 
ATOM     12  C20 UNK d           0.065 -12.947  12.731  0.00  0.00     0.153 A 
ATOM     13  C21 UNK d           1.002 -12.226  11.995  0.00  0.00    -0.031 A 
ENDROOT
BRANCH   6  14
ATOM     14  C10 UNK d          -1.712  -6.563   8.467  0.00  0.00     0.667 C 
ATOM     15  O   UNK d          -1.250  -5.559   9.010  0.00  0.00    -0.597 OA
ATOM     16  N   UNK d          -1.918  -6.723   7.095  0.00  0.00    -0.452 N 
ATOM     17  C3  UNK d          -2.531  -7.954   6.594  0.00  0.00     0.197 C 
ATOM     18  C4  UNK d          -1.619  -5.723   6.061  0.00  0.00     0.197 C 
ATOM     19  C2  UNK d          -1.651  -8.596   5.525  0.00  0.00    -0.004 C 
ATOM     20  C   UNK d          -1.312  -7.603   4.414  0.00  0.00     0.005 C 
ATOM     21  C1  UNK d          -0.714  -6.318   4.986  0.00  0.00    -0.004 C 
ENDBRANCH   6  14
BRANCH   1  22
ATOM     22  C8  UNK d          -4.103 -11.319  12.473  0.00  0.00     0.158 C 
BRANCH  22  23
ATOM     23  C12 UNK d          -4.279 -10.864  13.926  0.00  0.00    -0.001 C 
BRANCH  23  24
ATOM     24  C16 UNK d          -4.607 -12.018  14.879  0.00  0.00     0.002 C 
BRANCH  24  25
ATOM     25  C19 UNK d          -3.916 -11.832  16.231  0.00  0.00     0.004 C 
ATOM     26  C22 UNK d          -2.794 -12.840  16.425  0.00  0.00     0.010 C 
ENDBRANCH  24  25
ENDBRANCH  23  24
ENDBRANCH  22  23
ENDBRANCH   1  22
BRANCH  12  27
ATOM     27  O1  UNK d           0.465 -14.040  13.442  0.00  0.00    -0.326 OA
ATOM     28  C23 UNK d          -0.551 -14.782  14.114  0.00  0.00     0.247 C 
ENDBRANCH  12  27
TORSDOF 6
ENDMDL
MODEL 3
REMARK VINA RESULT:      -8.4      1.491      1.992
REMARK  6 active torsions:
REMARK  status: ('A' for Active; 'I' for Inactive)
REMARK    1  A    between atoms: O1_2  and  C20_25 
REMARK       I    between atoms: N_3  and  C10_15 
REMARK    2  A    between atoms: N1_4  and  C8_13 
REMARK    3  A    between atoms: C8_13  and  C12_17 
REMARK    4  A    between atoms: C10_15  and  C11_16 
REMARK    5  A    between atoms: C12_17  and  C16_21 
REMARK    6  A    between atoms: C16_21  and  C19_24 
ROOT
ATOM      1  N1  UNK d          -1.074 -11.614  12.949  0.00  0.00    -0.066 N 
ATOM      2  C5  UNK d          -0.525 -10.958  11.872  0.00  0.00     0.001 A 
ATOM      3  C6  UNK d          -1.565 -10.294  11.220  0.00  0.00    -0.072 A 
ATOM      4  C7  UNK d          -2.430 -11.396  13.015  0.00  0.00     0.024 A 
ATOM      5  C9  UNK d          -2.768 -10.572  11.943  0.00  0.00    -0.110 A 
ATOM      6  C11 UNK d           0.059  -9.474   9.615  0.00  0.00    -0.163 A 
ATOM      7  C13 UNK d          -1.263  -9.538  10.068  0.00  0.00     0.112 A 
ATOM      8  C14 UNK d           0.802 -10.905  11.431  0.00  0.00    -0.022 A 
ATOM      9  C15 UNK d           1.075 -10.149  10.288  0.00  0.00     0.064 A 
ATOM     10  C17 UNK d          -3.373 -11.865  13.937  0.00  0.00    -0.088 A 
ATOM     11  C18 UNK d          -4.118 -10.194  11.781  0.00  0.00     0.097 A 
ATOM     12  C20 UNK d          -4.703 -11.479  13.755  0.00  0.00     0.153 A 
ATOM     13  C21 UNK d          -5.074 -10.656  12.694  0.00  0.00    -0.031 A 
ENDROOT
BRANCH   6  14
ATOM     14  C10 UNK d           0.377  -8.689   8.416  0.00  0.00     0.667 C 
ATOM     15  O   UNK d           1.572  -8.548   8.159  0.00  0.00    -0.597 OA
ATOM     16  N   UNK d          -0.682  -8.160   7.675  0.00  0.00    -0.452 N 
ATOM     17  C3  UNK d          -2.057  -8.360   8.134  0.00  0.00     0.197 C 
ATOM     18  C4  UNK d          -0.554  -7.343   6.461  0.00  0.00     0.197 C 
ATOM     19  C2  UNK d          -2.907  -8.983   7.029  0.00  0.00    -0.004 C 
ATOM     20  C   UNK d          -2.820  -8.171   5.737  0.00  0.00     0.005 C 
ATOM     21  C1  UNK d          -1.367  -7.951   5.320  0.00  0.00    -0.004 C 
ENDBRANCH   6  14
BRANCH   1  22
ATOM     22  C8  UNK d          -0.324 -12.423  13.889  0.00  0.00     0.158 C 
BRANCH  22  23
ATOM     23  C12 UNK d          -0.521 -13.932  13.701  0.00  0.00    -0.001 C 
BRANCH  23  24
ATOM     24  C16 UNK d           0.391 -14.526  12.624  0.00  0.00     0.002 C 
BRANCH  24  25
ATOM     25  C19 UNK d          -0.320 -14.593  11.271  0.00  0.00     0.004 C 
ATOM     26  C22 UNK d          -1.821 -14.764  11.440  0.00  0.00     0.010 C 
ENDBRANCH  24  25
ENDBRANCH  23  24
ENDBRANCH  22  23
ENDBRANCH   1  22
BRANCH  12  27
ATOM     27  O1  UNK d          -5.654 -11.916  14.630  0.00  0.00    -0.326 OA
ATOM     28  C23 UNK d          -5.357 -11.794  16.020  0.00  0.00     0.247 C 
ENDBRANCH  12  27
TORSDOF 6
ENDMDL
