MODEL 1
REMARK VINA RESULT:      -8.7      0.000      0.000
REMARK  5 active torsions:
REMARK  status: ('A' for Active; 'I' for Inactive)
REMARK    1  A    between atoms: O1_2  and  C12_15 
REMARK    2  A    between atoms: C14_17  and  C16_19 
REMARK    3  A    between atoms: C16_19  and  C17_20 
REMARK    4  A    between atoms: C17_20  and  C18_21 
REMARK    5  A    between atoms: C18_21  and  C19_22 
ROOT
ATOM      1  O   UNK d           0.593 -12.612  11.775  0.00  0.00    -0.328 OA
ATOM      2  C   UNK d          -1.324 -12.914  13.348  0.00  0.00    -0.167 C 
ATOM      3  C1  UNK d          -4.188 -12.825  13.766  0.00  0.00    -0.016 C 
ATOM      4  C2  UNK d           0.154 -13.155  13.040  0.00  0.00     0.205 C 
ATOM      5  C3  UNK d          -2.030 -11.959  12.709  0.00  0.00    -0.003 C 
ATOM      6  C4  UNK d          -3.496 -11.705  12.973  0.00  0.00     0.097 C 
ATOM      7  C5  UNK d          -1.958 -13.771  14.427  0.00  0.00     0.066 C 
ATOM      8  C6  UNK d          -3.304 -13.251  14.935  0.00  0.00     0.012 C 
ATOM      9  C7  UNK d          -1.320 -11.119  11.729  0.00  0.00    -0.148 A 
ATOM     10  C8  UNK d          -0.040 -11.495  11.312  0.00  0.00     0.175 A 
ATOM     11  C9  UNK d          -5.566 -12.378  14.249  0.00  0.00     0.012 C 
ATOM     12  C10 UNK d           0.472 -14.654  12.927  0.00  0.00     0.044 C 
ATOM     13  C11 UNK d           1.043 -12.530  14.127  0.00  0.00     0.044 C 
ATOM     14  C12 UNK d          -1.879  -9.957  11.174  0.00  0.00     0.172 A 
ATOM     15  C13 UNK d           0.652 -10.756  10.346  0.00  0.00    -0.042 A 
ATOM     16  C14 UNK d           0.081  -9.608   9.804  0.00  0.00    -0.004 A 
ATOM     17  C15 UNK d          -1.183  -9.206  10.222  0.00  0.00    -0.119 A 
ENDROOT
BRANCH  16  18
ATOM     18  C16 UNK d           0.822  -8.813   8.784  0.00  0.00     0.061 C 
BRANCH  18  19
ATOM     19  C17 UNK d          -0.057  -7.851   7.965  0.00  0.00     0.014 C 
BRANCH  19  20
ATOM     20  C18 UNK d          -0.277  -8.327   6.525  0.00  0.00    -0.001 C 
BRANCH  20  21
ATOM     21  C19 UNK d          -1.723  -8.105   6.083  0.00  0.00    -0.002 C 
ATOM     22  C20 UNK d          -2.685  -8.991   6.860  0.00  0.00     0.006 C 
ENDBRANCH  20  21
ENDBRANCH  19  20
ENDBRANCH  18  19
ENDBRANCH  16  18
BRANCH  14  23
ATOM     23  O1  UNK d          -3.094  -9.447  11.531  0.00  0.00    -0.497 OA
ATOM     24  H24 UNK d          -3.758  -9.648  10.851  0.00  0.00     0.419 HD
ENDBRANCH  14  23
TORSDOF 5
ENDMDL
MODEL 2
REMARK VINA RESULT:      -8.7      1.554      3.512
REMARK  5 active torsions:
REMARK  status: ('A' for Active; 'I' for Inactive)
REMARK    1  A    between atoms: O1_2  and  C12_15 
REMARK    2  A    between atoms: C14_17  and  C16_19 
REMARK    3  A    between atoms: C16_19  and  C17_20 
REMARK    4  A    between atoms: C17_20  and  C18_21 
REMARK    5  A    between atoms: C18_21  and  C19_22 
ROOT
ATOM      1  O   UNK d          -4.590 -11.241  11.700  0.00  0.00    -0.328 OA
ATOM      2  C   UNK d          -3.097 -12.475  13.278  0.00  0.00    -0.167 C 
ATOM      3  C1  UNK d          -0.831 -12.391  15.078  0.00  0.00    -0.016 C 
ATOM      4  C2  UNK d          -4.407 -12.437  12.490  0.00  0.00     0.205 C 
ATOM      5  C3  UNK d          -2.057 -11.679  12.954  0.00  0.00    -0.003 C 
ATOM      6  C4  UNK d          -0.755 -11.675  13.721  0.00  0.00     0.097 C 
ATOM      7  C5  UNK d          -3.000 -13.470  14.419  0.00  0.00     0.066 C 
ATOM      8  C6  UNK d          -1.576 -13.713  14.922  0.00  0.00     0.012 C 
ATOM      9  C7  UNK d          -2.206 -10.794  11.785  0.00  0.00    -0.148 A 
ATOM     10  C8  UNK d          -3.472 -10.622  11.220  0.00  0.00     0.175 A 
ATOM     11  C9  UNK d           0.566 -12.608  15.657  0.00  0.00     0.012 C 
ATOM     12  C10 UNK d          -5.628 -12.454  13.422  0.00  0.00     0.044 C 
ATOM     13  C11 UNK d          -4.493 -13.629  11.523  0.00  0.00     0.044 C 
ATOM     14  C12 UNK d          -1.130 -10.096  11.216  0.00  0.00     0.172 A 
ATOM     15  C13 UNK d          -3.671  -9.754  10.140  0.00  0.00    -0.042 A 
ATOM     16  C14 UNK d          -2.593  -9.067   9.590  0.00  0.00    -0.004 A 
ATOM     17  C15 UNK d          -1.321  -9.241  10.126  0.00  0.00    -0.119 A 
ENDROOT
BRANCH  16  18
ATOM     18  C16 UNK d          -2.800  -8.151   8.433  0.00  0.00     0.061 C 
BRANCH  18  19
ATOM     19  C17 UNK d          -2.524  -8.788   7.059  0.00  0.00     0.014 C 
BRANCH  19  20
ATOM     20  C18 UNK d          -1.163  -8.388   6.481  0.00  0.00    -0.001 C 
BRANCH  20  21
ATOM     21  C19 UNK d          -1.294  -7.913   5.034  0.00  0.00    -0.002 C 
ATOM     22  C20 UNK d          -2.607  -7.181   4.805  0.00  0.00     0.006 C 
ENDBRANCH  20  21
ENDBRANCH  19  20
ENDBRANCH  18  19
ENDBRANCH  16  18
BRANCH  14  23
ATOM     23  O1  UNK d           0.165 -10.214  11.632  0.00  0.00    -0.497 OA
ATOM     24  H24 UNK d           0.738 -10.459  10.886  0.00  0.00     0.419 HD
ENDBRANCH  14  23
TORSDOF 5
ENDMDL
MODEL 3
REMARK VINA RESULT:      -8.4      1.441      3.664
REMARK  5 active torsions:
REMARK  status: ('A' for Active; 'I' for Inactive)
REMARK    1  A    between atoms: O1_2  and  C12_15 
REMARK    2  A    between atoms: C14_17  and  C16_19 
REMARK    3  A    between atoms: C16_19  and  C17_20 
REMARK    4  A    between atoms: C17_20  and  C18_21 
REMARK    5  A    between atoms: C18_21  and  C19_22 
ROOT
ATOM      1  O   UNK d          -4.178 -10.082  11.563  0.00  0.00    -0.328 OA
ATOM      2  C   UNK d          -2.879 -11.774  12.863  0.00  0.00    -0.167 C 
ATOM      3  C1  UNK d          -0.452 -12.423  14.301  0.00  0.00    -0.016 C 
ATOM      4  C2  UNK d          -4.224 -11.333  12.284  0.00  0.00     0.205 C 
ATOM      5  C3  UNK d          -1.716 -11.267  12.407  0.00  0.00    -0.003 C 
ATOM      6  C4  UNK d          -0.370 -11.665  12.967  0.00  0.00     0.097 C 
ATOM      7  C5  UNK d          -2.904 -12.832  13.950  0.00  0.00     0.066 C 
ATOM      8  C6  UNK d          -1.547 -13.483  14.226  0.00  0.00     0.012 C 
ATOM      9  C7  UNK d          -1.776 -10.299  11.297  0.00  0.00    -0.148 A 
ATOM     10  C8  UNK d          -3.010  -9.755  10.936  0.00  0.00     0.175 A 
ATOM     11  C9  UNK d           0.897 -13.047  14.655  0.00  0.00     0.012 C 
ATOM     12  C10 UNK d          -5.261 -11.082  13.391  0.00  0.00     0.044 C 
ATOM     13  C11 UNK d          -4.769 -12.390  11.311  0.00  0.00     0.044 C 
ATOM     14  C12 UNK d          -0.638  -9.880  10.591  0.00  0.00     0.172 A 
ATOM     15  C13 UNK d          -3.109  -8.796   9.921  0.00  0.00    -0.042 A 
ATOM     16  C14 UNK d          -1.970  -8.389   9.233  0.00  0.00    -0.004 A 
ATOM     17  C15 UNK d          -0.735  -8.935   9.565  0.00  0.00    -0.119 A 
ENDROOT
BRANCH  16  18
ATOM     18  C16 UNK d          -2.075  -7.377   8.145  0.00  0.00     0.061 C 
BRANCH  18  19
ATOM     19  C17 UNK d          -2.414  -7.961   6.761  0.00  0.00     0.014 C 
BRANCH  19  20
ATOM     20  C18 UNK d          -1.167  -8.280   5.930  0.00  0.00    -0.001 C 
BRANCH  20  21
ATOM     21  C19 UNK d          -1.260  -7.665   4.534  0.00  0.00    -0.002 C 
ATOM     22  C20 UNK d          -1.276  -6.146   4.594  0.00  0.00     0.006 C 
ENDBRANCH  20  21
ENDBRANCH  19  20
ENDBRANCH  18  19
ENDBRANCH  16  18
BRANCH  14  23
ATOM     23  O1  UNK d           0.619 -10.370  10.802  0.00  0.00    -0.497 OA
ATOM     24  H24 UNK d           0.581 -11.323  10.994  0.00  0.00     0.419 HD
ENDBRANCH  14  23
TORSDOF 5
ENDMDL
MODEL 4
REMARK VINA RESULT:      -8.2      1.560      2.056
REMARK  5 active torsions:
REMARK  status: ('A' for Active; 'I' for Inactive)
REMARK    1  A    between atoms: O1_2  and  C12_15 
REMARK    2  A    between atoms: C14_17  and  C16_19 
REMARK    3  A    between atoms: C16_19  and  C17_20 
REMARK    4  A    between atoms: C17_20  and  C18_21 
REMARK    5  A    between atoms: C18_21  and  C19_22 
ROOT
ATOM      1  O   UNK d           0.043 -10.787  10.638  0.00  0.00    -0.328 OA
ATOM      2  C   UNK d          -1.627 -12.129  11.923  0.00  0.00    -0.167 C 
ATOM      3  C1  UNK d          -4.331 -13.145  12.109  0.00  0.00    -0.016 C 
ATOM      4  C2  UNK d          -0.162 -11.757  11.689  0.00  0.00     0.205 C 
ATOM      5  C3  UNK d          -2.631 -11.345  11.483  0.00  0.00    -0.003 C 
ATOM      6  C4  UNK d          -4.090 -11.690  11.678  0.00  0.00     0.097 C 
ATOM      7  C5  UNK d          -1.905 -13.402  12.700  0.00  0.00     0.066 C 
ATOM      8  C6  UNK d          -3.343 -13.528  13.207  0.00  0.00     0.012 C 
ATOM      9  C7  UNK d          -2.275 -10.087  10.802  0.00  0.00    -0.148 A 
ATOM     10  C8  UNK d          -0.950  -9.877  10.413  0.00  0.00     0.175 A 
ATOM     11  C9  UNK d          -5.774 -13.342  12.572  0.00  0.00     0.012 C 
ATOM     12  C10 UNK d           0.665 -12.971  11.237  0.00  0.00     0.044 C 
ATOM     13  C11 UNK d           0.459 -11.170  12.967  0.00  0.00     0.044 C 
ATOM     14  C12 UNK d          -3.215  -9.088  10.506  0.00  0.00     0.172 A 
ATOM     15  C13 UNK d          -0.574  -8.720   9.721  0.00  0.00    -0.042 A 
ATOM     16  C14 UNK d          -1.519  -7.741   9.433  0.00  0.00    -0.004 A 
ATOM     17  C15 UNK d          -2.840  -7.923   9.830  0.00  0.00    -0.119 A 
ENDROOT
BRANCH  16  18
ATOM     18  C16 UNK d          -1.118  -6.504   8.706  0.00  0.00     0.061 C 
BRANCH  18  19
ATOM     19  C17 UNK d          -2.193  -5.948   7.755  0.00  0.00     0.014 C 
BRANCH  19  20
ATOM     20  C18 UNK d          -1.844  -6.155   6.278  0.00  0.00    -0.001 C 
BRANCH  20  21
ATOM     21  C19 UNK d          -2.236  -7.556   5.808  0.00  0.00    -0.002 C 
ATOM     22  C20 UNK d          -1.014  -8.440   5.611  0.00  0.00     0.006 C 
ENDBRANCH  20  21
ENDBRANCH  19  20
ENDBRANCH  18  19
ENDBRANCH  16  18
BRANCH  14  23
ATOM     23  O1  UNK d          -4.528  -9.139  10.876  0.00  0.00    -0.497 OA
ATOM     24  H24 UNK d          -4.606  -9.144  11.845  0.00  0.00     0.419 HD
ENDBRANCH  14  23
TORSDOF 5
ENDMDL
MODEL 5
REMARK VINA RESULT:      -7.4      1.698      6.609
REMARK  5 active torsions:
REMARK  status: ('A' for Active; 'I' for Inactive)
REMARK    1  A    between atoms: O1_2  and  C12_15 
REMARK    2  A    between atoms: C14_17  and  C16_19 
REMARK    3  A    between atoms: C16_19  and  C17_20 
REMARK    4  A    between atoms: C17_20  and  C18_21 
REMARK    5  A    between atoms: C18_21  and  C19_22 
ROOT
ATOM      1  O   UNK d          -0.797 -11.604  12.679  0.00  0.00    -0.328 OA
ATOM      2  C   UNK d          -0.301 -10.210  10.666  0.00  0.00    -0.167 C 
ATOM      3  C1  UNK d          -0.861  -7.808   9.151  0.00  0.00    -0.016 C 
ATOM      4  C2  UNK d           0.119 -11.354  11.590  0.00  0.00     0.205 C 
ATOM      5  C3  UNK d          -1.573  -9.763  10.633  0.00  0.00    -0.003 C 
ATOM      6  C4  UNK d          -2.020  -8.623   9.747  0.00  0.00     0.097 C 
ATOM      7  C5  UNK d           0.765  -9.620   9.762  0.00  0.00     0.066 C 
ATOM      8  C6  UNK d           0.218  -8.752   8.628  0.00  0.00     0.012 C 
ATOM      9  C7  UNK d          -2.563 -10.440  11.488  0.00  0.00    -0.148 A 
ATOM     10  C8  UNK d          -2.118 -11.328  12.471  0.00  0.00     0.175 A 
ATOM     11  C9  UNK d          -1.364  -6.877   8.049  0.00  0.00     0.012 C 
ATOM     12  C10 UNK d           1.453 -11.053  12.293  0.00  0.00     0.044 C 
ATOM     13  C11 UNK d           0.248 -12.668  10.803  0.00  0.00     0.044 C 
ATOM     14  C12 UNK d          -3.944 -10.222  11.374  0.00  0.00     0.172 A 
ATOM     15  C13 UNK d          -3.018 -11.956  13.339  0.00  0.00    -0.042 A 
ATOM     16  C14 UNK d          -4.385 -11.726  13.214  0.00  0.00    -0.004 A 
ATOM     17  C15 UNK d          -4.848 -10.861  12.228  0.00  0.00    -0.119 A 
ENDROOT
BRANCH  16  18
ATOM     18  C16 UNK d          -5.345 -12.403  14.130  0.00  0.00     0.061 C 
BRANCH  18  19
ATOM     19  C17 UNK d          -5.744 -11.572  15.362  0.00  0.00     0.014 C 
BRANCH  19  20
ATOM     20  C18 UNK d          -4.630 -11.490  16.410  0.00  0.00    -0.001 C 
BRANCH  20  21
ATOM     21  C19 UNK d          -4.121 -12.881  16.787  0.00  0.00    -0.002 C 
ATOM     22  C20 UNK d          -2.601 -12.938  16.784  0.00  0.00     0.006 C 
ENDBRANCH  20  21
ENDBRANCH  19  20
ENDBRANCH  18  19
ENDBRANCH  16  18
BRANCH  14  23
ATOM     23  O1  UNK d          -4.517  -9.425  10.425  0.00  0.00    -0.497 OA
ATOM     24  H24 UNK d          -4.716  -9.942   9.625  0.00  0.00     0.419 HD
ENDBRANCH  14  23
TORSDOF 5
ENDMDL
MODEL 6
REMARK VINA RESULT:      -5.8      1.737      2.290
REMARK  5 active torsions:
REMARK  status: ('A' for Active; 'I' for Inactive)
REMARK    1  A    between atoms: O1_2  and  C12_15 
REMARK    2  A    between atoms: C14_17  and  C16_19 
REMARK    3  A    between atoms: C16_19  and  C17_20 
REMARK    4  A    between atoms: C17_20  and  C18_21 
REMARK    5  A    between atoms: C18_21  and  C19_22 
ROOT
ATOM      1  O   UNK d          -0.510 -11.655  11.235  0.00  0.00    -0.328 OA
ATOM      2  C   UNK d          -1.203 -12.335  13.537  0.00  0.00    -0.167 C 
ATOM      3  C1  UNK d          -3.346 -13.112  15.321  0.00  0.00    -0.016 C 
ATOM      4  C2  UNK d          -0.073 -12.130  12.527  0.00  0.00     0.205 C 
ATOM      5  C3  UNK d          -2.408 -11.754  13.372  0.00  0.00    -0.003 C 
ATOM      6  C4  UNK d          -3.554 -11.950  14.338  0.00  0.00     0.097 C 
ATOM      7  C5  UNK d          -0.902 -13.193  14.752  0.00  0.00     0.066 C 
ATOM      8  C6  UNK d          -1.927 -13.066  15.880  0.00  0.00     0.012 C 
ATOM      9  C7  UNK d          -2.594 -10.875  12.204  0.00  0.00    -0.148 A 
ATOM     10  C8  UNK d          -1.630 -10.875  11.193  0.00  0.00     0.175 A 
ATOM     11  C9  UNK d          -4.383 -13.067  16.442  0.00  0.00     0.012 C 
ATOM     12  C10 UNK d           0.650 -13.449  12.210  0.00  0.00     0.044 C 
ATOM     13  C11 UNK d           0.948 -11.109  13.056  0.00  0.00     0.044 C 
ATOM     14  C12 UNK d          -3.713 -10.043  12.048  0.00  0.00     0.172 A 
ATOM     15  C13 UNK d          -1.788 -10.094  10.043  0.00  0.00    -0.042 A 
ATOM     16  C14 UNK d          -2.906  -9.276   9.903  0.00  0.00    -0.004 A 
ATOM     17  C15 UNK d          -3.866  -9.248  10.908  0.00  0.00    -0.119 A 
ENDROOT
BRANCH  16  18
ATOM     18  C16 UNK d          -3.070  -8.435   8.684  0.00  0.00     0.061 C 
BRANCH  18  19
ATOM     19  C17 UNK d          -1.749  -7.932   8.074  0.00  0.00     0.014 C 
BRANCH  19  20
ATOM     20  C18 UNK d          -1.925  -6.656   7.246  0.00  0.00    -0.001 C 
BRANCH  20  21
ATOM     21  C19 UNK d          -1.139  -5.491   7.851  0.00  0.00    -0.002 C 
ATOM     22  C20 UNK d          -2.002  -4.666   8.792  0.00  0.00     0.006 C 
ENDBRANCH  20  21
ENDBRANCH  19  20
ENDBRANCH  18  19
ENDBRANCH  16  18
BRANCH  14  23
ATOM     23  O1  UNK d          -4.700  -9.904  12.981  0.00  0.00    -0.497 OA
ATOM     24  H24 UNK d          -5.493 -10.397  12.710  0.00  0.00     0.419 HD
ENDBRANCH  14  23
TORSDOF 5
ENDMDL
