MODEL 1
REMARK VINA RESULT:      -8.2      0.000      0.000
REMARK  7 active torsions:
REMARK  status: ('A' for Active; 'I' for Inactive)
REMARK    1  A    between atoms: O_1  and  C6_9 
REMARK    2  A    between atoms: O1_2  and  C7_10 
REMARK    3  A    between atoms: C_3  and  C1_4 
REMARK    4  A    between atoms: C2_5  and  C8_11 
REMARK    5  A    between atoms: C3_6  and  C9_12 
REMARK    6  A    between atoms: C8_11  and  C14_17 
REMARK    7  A    between atoms: C9_12  and  C15_18 
ROOT
ATOM      1  C   UNK d          -2.345  -2.794  10.289  0.00  0.00    -0.048 A 
ATOM      2  C2  UNK d          -0.989  -3.627  12.107  0.00  0.00    -0.112 A 
ATOM      3  C4  UNK d          -1.612  -2.564  11.452  0.00  0.00     0.083 A 
ATOM      4  C6  UNK d          -2.456  -4.088   9.779  0.00  0.00     0.130 A 
ATOM      5  C10 UNK d          -1.101  -4.921  11.597  0.00  0.00     0.045 A 
ATOM      6  C12 UNK d          -1.834  -5.151  10.433  0.00  0.00    -0.083 A 
ENDROOT
BRANCH   1   7
ATOM      7  C1  UNK d          -2.983  -1.676   9.623  0.00  0.00    -0.048 A 
ATOM      8  C5  UNK d          -2.202  -0.602   9.197  0.00  0.00     0.083 A 
ATOM      9  C3  UNK d          -2.799   0.483   8.555  0.00  0.00    -0.112 A 
ATOM     10  C11 UNK d          -4.177   0.493   8.340  0.00  0.00     0.045 A 
ATOM     11  C13 UNK d          -4.958  -0.580   8.765  0.00  0.00    -0.083 A 
ATOM     12  C7  UNK d          -4.361  -1.666   9.407  0.00  0.00     0.130 A 
BRANCH   9  13
ATOM     13  C9  UNK d          -1.964   1.632   8.100  0.00  0.00     0.104 C 
BRANCH  13  14
ATOM     14  C15 UNK d          -2.117   2.853   8.971  0.00  0.00    -0.037 C 
ATOM     15  C17 UNK d          -1.732   2.915  10.251  0.00  0.00    -0.003 C 
ENDBRANCH  13  14
ENDBRANCH   9  13
BRANCH  12  16
ATOM     16  O1  UNK d          -5.149  -2.702   9.814  0.00  0.00    -0.497 OA
ATOM     17  H13 UNK d          -4.709  -3.167  10.547  0.00  0.00     0.417 HD
ENDBRANCH  12  16
ENDBRANCH   1   7
BRANCH   4  18
ATOM     18  O   UNK d          -3.165  -4.341   8.642  0.00  0.00    -0.497 OA
ATOM     19  H12 UNK d          -4.101  -4.471   8.873  0.00  0.00     0.417 HD
ENDBRANCH   4  18
BRANCH   2  20
ATOM     20  C8  UNK d          -0.206  -3.383  13.352  0.00  0.00     0.104 C 
BRANCH  20  21
ATOM     21  C14 UNK d           0.977  -4.305  13.496  0.00  0.00    -0.037 C 
ATOM     22  C16 UNK d           0.949  -5.463  14.163  0.00  0.00    -0.003 C 
ENDBRANCH  20  21
ENDBRANCH   2  20
TORSDOF 7
ENDMDL
MODEL 2
REMARK VINA RESULT:      -8.2      0.042      6.117
REMARK  7 active torsions:
REMARK  status: ('A' for Active; 'I' for Inactive)
REMARK    1  A    between atoms: O_1  and  C6_9 
REMARK    2  A    between atoms: O1_2  and  C7_10 
REMARK    3  A    between atoms: C_3  and  C1_4 
REMARK    4  A    between atoms: C2_5  and  C8_11 
REMARK    5  A    between atoms: C3_6  and  C9_12 
REMARK    6  A    between atoms: C8_11  and  C14_17 
REMARK    7  A    between atoms: C9_12  and  C15_18 
ROOT
ATOM      1  C   UNK d          -2.972  -1.692   9.648  0.00  0.00    -0.048 A 
ATOM      2  C2  UNK d          -2.794   0.463   8.573  0.00  0.00    -0.112 A 
ATOM      3  C4  UNK d          -2.194  -0.619   9.216  0.00  0.00     0.083 A 
ATOM      4  C6  UNK d          -4.351  -1.684   9.438  0.00  0.00     0.130 A 
ATOM      5  C10 UNK d          -4.174   0.472   8.362  0.00  0.00     0.045 A 
ATOM      6  C12 UNK d          -4.952  -0.601   8.794  0.00  0.00    -0.083 A 
ENDROOT
BRANCH   1   7
ATOM      7  C1  UNK d          -2.330  -2.807  10.316  0.00  0.00    -0.048 A 
ATOM      8  C5  UNK d          -1.602  -2.574  11.481  0.00  0.00     0.083 A 
ATOM      9  C3  UNK d          -0.976  -3.634  12.137  0.00  0.00    -0.112 A 
ATOM     10  C11 UNK d          -1.079  -4.929  11.626  0.00  0.00     0.045 A 
ATOM     11  C13 UNK d          -1.808  -5.162  10.461  0.00  0.00    -0.083 A 
ATOM     12  C7  UNK d          -2.434  -4.101   9.805  0.00  0.00     0.130 A 
BRANCH   9  13
ATOM     13  C9  UNK d          -0.196  -3.386  13.384  0.00  0.00     0.104 C 
BRANCH  13  14
ATOM     14  C15 UNK d           0.968  -4.328  13.549  0.00  0.00    -0.037 C 
ATOM     15  C17 UNK d           0.909  -5.484  14.223  0.00  0.00    -0.003 C 
ENDBRANCH  13  14
ENDBRANCH   9  13
BRANCH  12  16
ATOM     16  O1  UNK d          -3.139  -4.358   8.666  0.00  0.00    -0.497 OA
ATOM     17  H13 UNK d          -3.453  -5.278   8.686  0.00  0.00     0.417 HD
ENDBRANCH  12  16
ENDBRANCH   1   7
BRANCH   4  18
ATOM     18  O   UNK d          -5.136  -2.719   9.851  0.00  0.00    -0.497 OA
ATOM     19  H12 UNK d          -4.667  -3.218  10.543  0.00  0.00     0.417 HD
ENDBRANCH   4  18
BRANCH   2  20
ATOM     20  C8  UNK d          -1.963   1.611   8.109  0.00  0.00     0.104 C 
BRANCH  20  21
ATOM     21  C14 UNK d          -2.086   2.824   8.994  0.00  0.00    -0.037 C 
ATOM     22  C16 UNK d          -1.693   2.865  10.272  0.00  0.00    -0.003 C 
ENDBRANCH  20  21
ENDBRANCH   2  20
TORSDOF 7
ENDMDL
MODEL 3
REMARK VINA RESULT:      -8.2      1.339      1.847
REMARK  7 active torsions:
REMARK  status: ('A' for Active; 'I' for Inactive)
REMARK    1  A    between atoms: O_1  and  C6_9 
REMARK    2  A    between atoms: O1_2  and  C7_10 
REMARK    3  A    between atoms: C_3  and  C1_4 
REMARK    4  A    between atoms: C2_5  and  C8_11 
REMARK    5  A    between atoms: C3_6  and  C9_12 
REMARK    6  A    between atoms: C8_11  and  C14_17 
REMARK    7  A    between atoms: C9_12  and  C15_18 
ROOT
ATOM      1  C   UNK d          -2.977  -3.816  10.458  0.00  0.00    -0.048 A 
ATOM      2  C2  UNK d          -1.300  -5.276  11.401  0.00  0.00    -0.112 A 
ATOM      3  C4  UNK d          -1.644  -4.204  10.578  0.00  0.00     0.083 A 
ATOM      4  C6  UNK d          -3.969  -4.501  11.162  0.00  0.00     0.130 A 
ATOM      5  C10 UNK d          -2.291  -5.961  12.105  0.00  0.00     0.045 A 
ATOM      6  C12 UNK d          -3.625  -5.573  11.986  0.00  0.00    -0.083 A 
ENDROOT
BRANCH   1   7
ATOM      7  C1  UNK d          -3.315  -2.701   9.597  0.00  0.00    -0.048 A 
ATOM      8  C5  UNK d          -2.675  -1.477   9.785  0.00  0.00     0.083 A 
ATOM      9  C3  UNK d          -2.988  -0.392   8.967  0.00  0.00    -0.112 A 
ATOM     10  C11 UNK d          -3.942  -0.532   7.959  0.00  0.00     0.045 A 
ATOM     11  C13 UNK d          -4.583  -1.755   7.770  0.00  0.00    -0.083 A 
ATOM     12  C7  UNK d          -4.270  -2.841   8.589  0.00  0.00     0.130 A 
BRANCH   9  13
ATOM     13  C9  UNK d          -2.303   0.918   9.168  0.00  0.00     0.104 C 
BRANCH  13  14
ATOM     14  C15 UNK d          -1.989   1.624   7.875  0.00  0.00    -0.037 C 
ATOM     15  C17 UNK d          -2.059   2.950   7.706  0.00  0.00    -0.003 C 
ENDBRANCH  13  14
ENDBRANCH   9  13
BRANCH  12  16
ATOM     16  O1  UNK d          -4.912  -4.025   8.383  0.00  0.00    -0.497 OA
ATOM     17  H13 UNK d          -5.263  -4.044   7.475  0.00  0.00     0.417 HD
ENDBRANCH  12  16
ENDBRANCH   1   7
BRANCH   4  18
ATOM     18  O   UNK d          -5.281  -4.144  11.063  0.00  0.00    -0.497 OA
ATOM     19  H12 UNK d          -5.825  -4.798  11.534  0.00  0.00     0.417 HD
ENDBRANCH   4  18
BRANCH   2  20
ATOM     20  C8  UNK d           0.127  -5.691  11.530  0.00  0.00     0.104 C 
BRANCH  20  21
ATOM     21  C14 UNK d           0.686  -5.462  12.910  0.00  0.00    -0.037 C 
ATOM     22  C16 UNK d           0.796  -4.259  13.485  0.00  0.00    -0.003 C 
ENDBRANCH  20  21
ENDBRANCH   2  20
TORSDOF 7
ENDMDL
MODEL 4
REMARK VINA RESULT:      -8.0      2.515      2.898
REMARK  7 active torsions:
REMARK  status: ('A' for Active; 'I' for Inactive)
REMARK    1  A    between atoms: O_1  and  C6_9 
REMARK    2  A    between atoms: O1_2  and  C7_10 
REMARK    3  A    between atoms: C_3  and  C1_4 
REMARK    4  A    between atoms: C2_5  and  C8_11 
REMARK    5  A    between atoms: C3_6  and  C9_12 
REMARK    6  A    between atoms: C8_11  and  C14_17 
REMARK    7  A    between atoms: C9_12  and  C15_18 
ROOT
ATOM      1  C   UNK d          -3.481  -3.407  11.018  0.00  0.00    -0.048 A 
ATOM      2  C2  UNK d          -3.845  -4.198  13.272  0.00  0.00    -0.112 A 
ATOM      3  C4  UNK d          -4.013  -3.218  12.293  0.00  0.00     0.083 A 
ATOM      4  C6  UNK d          -2.782  -4.577  10.720  0.00  0.00     0.130 A 
ATOM      5  C10 UNK d          -3.146  -5.368  12.974  0.00  0.00     0.045 A 
ATOM      6  C12 UNK d          -2.614  -5.557  11.699  0.00  0.00    -0.083 A 
ENDROOT
BRANCH   1   7
ATOM      7  C1  UNK d          -3.665  -2.377  10.016  0.00  0.00    -0.048 A 
ATOM      8  C5  UNK d          -2.653  -1.440   9.810  0.00  0.00     0.083 A 
ATOM      9  C3  UNK d          -2.812  -0.441   8.850  0.00  0.00    -0.112 A 
ATOM     10  C11 UNK d          -3.984  -0.378   8.096  0.00  0.00     0.045 A 
ATOM     11  C13 UNK d          -4.996  -1.315   8.302  0.00  0.00    -0.083 A 
ATOM     12  C7  UNK d          -4.837  -2.314   9.262  0.00  0.00     0.130 A 
BRANCH   9  13
ATOM     13  C9  UNK d          -1.729   0.562   8.629  0.00  0.00     0.104 C 
BRANCH  13  14
ATOM     14  C15 UNK d          -2.001   1.881   9.305  0.00  0.00    -0.037 C 
ATOM     15  C17 UNK d          -1.482   2.242  10.485  0.00  0.00    -0.003 C 
ENDBRANCH  13  14
ENDBRANCH   9  13
BRANCH  12  16
ATOM     16  O1  UNK d          -5.843  -3.216   9.443  0.00  0.00    -0.497 OA
ATOM     17  H13 UNK d          -5.534  -3.923  10.036  0.00  0.00     0.417 HD
ENDBRANCH  12  16
ENDBRANCH   1   7
BRANCH   4  18
ATOM     18  O   UNK d          -2.250  -4.788   9.482  0.00  0.00    -0.497 OA
ATOM     19  H12 UNK d          -1.496  -5.397   9.559  0.00  0.00     0.417 HD
ENDBRANCH   4  18
BRANCH   2  20
ATOM     20  C8  UNK d          -4.414  -3.997  14.635  0.00  0.00     0.104 C 
BRANCH  20  21
ATOM     21  C14 UNK d          -5.919  -3.931  14.644  0.00  0.00    -0.037 C 
ATOM     22  C16 UNK d          -6.717  -4.970  14.373  0.00  0.00    -0.003 C 
ENDBRANCH  20  21
ENDBRANCH   2  20
TORSDOF 7
ENDMDL
MODEL 5
REMARK VINA RESULT:      -8.0      1.811      6.602
REMARK  7 active torsions:
REMARK  status: ('A' for Active; 'I' for Inactive)
REMARK    1  A    between atoms: O_1  and  C6_9 
REMARK    2  A    between atoms: O1_2  and  C7_10 
REMARK    3  A    between atoms: C_3  and  C1_4 
REMARK    4  A    between atoms: C2_5  and  C8_11 
REMARK    5  A    between atoms: C3_6  and  C9_12 
REMARK    6  A    between atoms: C8_11  and  C14_17 
REMARK    7  A    between atoms: C9_12  and  C15_18 
ROOT
ATOM      1  C   UNK d          -3.088  -2.880   9.912  0.00  0.00    -0.048 A 
ATOM      2  C2  UNK d          -3.893  -0.865   8.850  0.00  0.00    -0.112 A 
ATOM      3  C4  UNK d          -2.849  -1.602   9.411  0.00  0.00     0.083 A 
ATOM      4  C6  UNK d          -4.372  -3.424   9.853  0.00  0.00     0.130 A 
ATOM      5  C10 UNK d          -5.176  -1.409   8.791  0.00  0.00     0.045 A 
ATOM      6  C12 UNK d          -5.415  -2.688   9.292  0.00  0.00    -0.083 A 
ENDROOT
BRANCH   1   7
ATOM      7  C1  UNK d          -1.991  -3.629  10.493  0.00  0.00    -0.048 A 
ATOM      8  C5  UNK d          -1.823  -4.969  10.146  0.00  0.00     0.083 A 
ATOM      9  C3  UNK d          -0.774  -5.706  10.695  0.00  0.00    -0.112 A 
ATOM     10  C11 UNK d           0.107  -5.102  11.593  0.00  0.00     0.045 A 
ATOM     11  C13 UNK d          -0.061  -3.762  11.940  0.00  0.00    -0.083 A 
ATOM     12  C7  UNK d          -1.110  -3.025  11.391  0.00  0.00     0.130 A 
BRANCH   9  13
ATOM     13  C9  UNK d          -0.593  -7.139  10.324  0.00  0.00     0.104 C 
BRANCH  13  14
ATOM     14  C15 UNK d          -0.815  -8.080  11.481  0.00  0.00    -0.037 C 
ATOM     15  C17 UNK d          -1.878  -8.035  12.292  0.00  0.00    -0.003 C 
ENDBRANCH  13  14
ENDBRANCH   9  13
BRANCH  12  16
ATOM     16  O1  UNK d          -1.252  -1.717  11.749  0.00  0.00    -0.497 OA
ATOM     17  H13 UNK d          -1.308  -1.171  10.945  0.00  0.00     0.417 HD
ENDBRANCH  12  16
ENDBRANCH   1   7
BRANCH   4  18
ATOM     18  O   UNK d          -4.634  -4.672  10.337  0.00  0.00    -0.497 OA
ATOM     19  H12 UNK d          -5.580  -4.736  10.555  0.00  0.00     0.417 HD
ENDBRANCH   4  18
BRANCH   2  20
ATOM     20  C8  UNK d          -3.638   0.502   8.313  0.00  0.00     0.104 C 
BRANCH  20  21
ATOM     21  C14 UNK d          -2.186   0.749   7.993  0.00  0.00    -0.037 C 
ATOM     22  C16 UNK d          -1.696   1.927   7.589  0.00  0.00    -0.003 C 
ENDBRANCH  20  21
ENDBRANCH   2  20
TORSDOF 7
ENDMDL
MODEL 6
REMARK VINA RESULT:      -7.9      1.394      6.081
REMARK  7 active torsions:
REMARK  status: ('A' for Active; 'I' for Inactive)
REMARK    1  A    between atoms: O_1  and  C6_9 
REMARK    2  A    between atoms: O1_2  and  C7_10 
REMARK    3  A    between atoms: C_3  and  C1_4 
REMARK    4  A    between atoms: C2_5  and  C8_11 
REMARK    5  A    between atoms: C3_6  and  C9_12 
REMARK    6  A    between atoms: C8_11  and  C14_17 
REMARK    7  A    between atoms: C9_12  and  C15_18 
ROOT
ATOM      1  C   UNK d          -3.386  -2.705   9.581  0.00  0.00    -0.048 A 
ATOM      2  C2  UNK d          -2.980  -0.393   9.011  0.00  0.00    -0.112 A 
ATOM      3  C4  UNK d          -2.711  -1.507   9.807  0.00  0.00     0.083 A 
ATOM      4  C6  UNK d          -4.331  -2.791   8.558  0.00  0.00     0.130 A 
ATOM      5  C10 UNK d          -3.925  -0.479   7.988  0.00  0.00     0.045 A 
ATOM      6  C12 UNK d          -4.600  -1.678   7.762  0.00  0.00    -0.083 A 
ENDROOT
BRANCH   1   7
ATOM      7  C1  UNK d          -3.094  -3.850  10.419  0.00  0.00    -0.048 A 
ATOM      8  C5  UNK d          -1.782  -4.312  10.508  0.00  0.00     0.083 A 
ATOM      9  C3  UNK d          -1.482  -5.414  11.309  0.00  0.00    -0.112 A 
ATOM     10  C11 UNK d          -2.496  -6.054  12.022  0.00  0.00     0.045 A 
ATOM     11  C13 UNK d          -3.809  -5.593  11.933  0.00  0.00    -0.083 A 
ATOM     12  C7  UNK d          -4.109  -4.491  11.132  0.00  0.00     0.130 A 
BRANCH   9  13
ATOM     13  C9  UNK d          -0.077  -5.907  11.404  0.00  0.00     0.104 C 
BRANCH  13  14
ATOM     14  C15 UNK d           0.765  -5.108  12.365  0.00  0.00    -0.037 C 
ATOM     15  C17 UNK d           0.270  -4.235  13.251  0.00  0.00    -0.003 C 
ENDBRANCH  13  14
ENDBRANCH   9  13
BRANCH  12  16
ATOM     16  O1  UNK d          -5.401  -4.062  11.062  0.00  0.00    -0.497 OA
ATOM     17  H13 UNK d          -5.918  -4.693  10.532  0.00  0.00     0.417 HD
ENDBRANCH  12  16
ENDBRANCH   1   7
BRANCH   4  18
ATOM     18  O   UNK d          -5.007  -3.950   8.315  0.00  0.00    -0.497 OA
ATOM     19  H12 UNK d          -5.188  -4.396   9.161  0.00  0.00     0.417 HD
ENDBRANCH   4  18
BRANCH   2  20
ATOM     20  C8  UNK d          -2.258   0.889   9.252  0.00  0.00     0.104 C 
BRANCH  20  21
ATOM     21  C14 UNK d          -2.679   1.990   8.313  0.00  0.00    -0.037 C 
ATOM     22  C16 UNK d          -1.831   2.713   7.575  0.00  0.00    -0.003 C 
ENDBRANCH  20  21
ENDBRANCH   2  20
TORSDOF 7
ENDMDL
MODEL 7
REMARK VINA RESULT:      -7.8      1.579      2.811
REMARK  7 active torsions:
REMARK  status: ('A' for Active; 'I' for Inactive)
REMARK    1  A    between atoms: O_1  and  C6_9 
REMARK    2  A    between atoms: O1_2  and  C7_10 
REMARK    3  A    between atoms: C_3  and  C1_4 
REMARK    4  A    between atoms: C2_5  and  C8_11 
REMARK    5  A    between atoms: C3_6  and  C9_12 
REMARK    6  A    between atoms: C8_11  and  C14_17 
REMARK    7  A    between atoms: C9_12  and  C15_18 
ROOT
ATOM      1  C   UNK d          -2.138  -1.165   9.798  0.00  0.00    -0.048 A 
ATOM      2  C2  UNK d          -1.187  -3.160  10.775  0.00  0.00    -0.112 A 
ATOM      3  C4  UNK d          -1.031  -1.868  10.273  0.00  0.00     0.083 A 
ATOM      4  C6  UNK d          -3.402  -1.755   9.825  0.00  0.00     0.130 A 
ATOM      5  C10 UNK d          -2.451  -3.749  10.801  0.00  0.00     0.045 A 
ATOM      6  C12 UNK d          -3.558  -3.047  10.327  0.00  0.00    -0.083 A 
ENDROOT
BRANCH   1   7
ATOM      7  C1  UNK d          -1.955   0.176   9.280  0.00  0.00    -0.048 A 
ATOM      8  C5  UNK d          -1.603   1.202  10.156  0.00  0.00     0.083 A 
ATOM      9  C3  UNK d          -1.425   2.499   9.675  0.00  0.00    -0.112 A 
ATOM     10  C11 UNK d          -1.598   2.770   8.317  0.00  0.00     0.045 A 
ATOM     11  C13 UNK d          -1.950   1.744   7.442  0.00  0.00    -0.083 A 
ATOM     12  C7  UNK d          -2.129   0.446   7.922  0.00  0.00     0.130 A 
BRANCH   9  13
ATOM     13  C9  UNK d          -1.048   3.597  10.612  0.00  0.00     0.104 C 
BRANCH  13  14
ATOM     14  C15 UNK d          -0.834   3.119  12.025  0.00  0.00    -0.037 C 
ATOM     15  C17 UNK d          -1.556   3.529  13.074  0.00  0.00    -0.003 C 
ENDBRANCH  13  14
ENDBRANCH   9  13
BRANCH  12  16
ATOM     16  O1  UNK d          -2.474  -0.538   7.044  0.00  0.00    -0.497 OA
ATOM     17  H13 UNK d          -1.885  -1.301   7.173  0.00  0.00     0.417 HD
ENDBRANCH  12  16
ENDBRANCH   1   7
BRANCH   4  18
ATOM     18  O   UNK d          -4.501  -1.091   9.366  0.00  0.00    -0.497 OA
ATOM     19  H12 UNK d          -4.987  -1.667   8.750  0.00  0.00     0.417 HD
ENDBRANCH   4  18
BRANCH   2  20
ATOM     20  C8  UNK d          -0.004  -3.912  11.283  0.00  0.00     0.104 C 
BRANCH  20  21
ATOM     21  C14 UNK d           0.078  -3.937  12.787  0.00  0.00    -0.037 C 
ATOM     22  C16 UNK d          -0.390  -2.968  13.581  0.00  0.00    -0.003 C 
ENDBRANCH  20  21
ENDBRANCH   2  20
TORSDOF 7
ENDMDL
MODEL 8
REMARK VINA RESULT:      -7.8      1.836      6.342
REMARK  7 active torsions:
REMARK  status: ('A' for Active; 'I' for Inactive)
REMARK    1  A    between atoms: O_1  and  C6_9 
REMARK    2  A    between atoms: O1_2  and  C7_10 
REMARK    3  A    between atoms: C_3  and  C1_4 
REMARK    4  A    between atoms: C2_5  and  C8_11 
REMARK    5  A    between atoms: C3_6  and  C9_12 
REMARK    6  A    between atoms: C8_11  and  C14_17 
REMARK    7  A    between atoms: C9_12  and  C15_18 
ROOT
ATOM      1  C   UNK d          -3.451  -2.409   9.889  0.00  0.00    -0.048 A 
ATOM      2  C2  UNK d          -2.930  -0.237   8.970  0.00  0.00    -0.112 A 
ATOM      3  C4  UNK d          -2.582  -1.325   9.770  0.00  0.00     0.083 A 
ATOM      4  C6  UNK d          -4.669  -2.405   9.207  0.00  0.00     0.130 A 
ATOM      5  C10 UNK d          -4.147  -0.233   8.289  0.00  0.00     0.045 A 
ATOM      6  C12 UNK d          -5.016  -1.316   8.407  0.00  0.00    -0.083 A 
ENDROOT
BRANCH   1   7
ATOM      7  C1  UNK d          -3.073  -3.530  10.726  0.00  0.00    -0.048 A 
ATOM      8  C5  UNK d          -2.163  -4.467  10.238  0.00  0.00     0.083 A 
ATOM      9  C3  UNK d          -1.788  -5.553  11.029  0.00  0.00    -0.112 A 
ATOM     10  C11 UNK d          -2.325  -5.702  12.308  0.00  0.00     0.045 A 
ATOM     11  C13 UNK d          -3.236  -4.766  12.796  0.00  0.00    -0.083 A 
ATOM     12  C7  UNK d          -3.610  -3.679  12.005  0.00  0.00     0.130 A 
BRANCH   9  13
ATOM     13  C9  UNK d          -0.814  -6.555  10.508  0.00  0.00     0.104 C 
BRANCH  13  14
ATOM     14  C15 UNK d          -0.511  -7.652  11.496  0.00  0.00    -0.037 C 
ATOM     15  C17 UNK d          -1.264  -8.747  11.657  0.00  0.00    -0.003 C 
ENDBRANCH  13  14
ENDBRANCH   9  13
BRANCH  12  16
ATOM     16  O1  UNK d          -4.504  -2.780  12.506  0.00  0.00    -0.497 OA
ATOM     17  H13 UNK d          -4.034  -2.151  13.081  0.00  0.00     0.417 HD
ENDBRANCH  12  16
ENDBRANCH   1   7
BRANCH   4  18
ATOM     18  O   UNK d          -5.538  -3.451   9.306  0.00  0.00    -0.497 OA
ATOM     19  H12 UNK d          -5.058  -4.235   9.624  0.00  0.00     0.417 HD
ENDBRANCH   4  18
BRANCH   2  20
ATOM     20  C8  UNK d          -2.001   0.923   8.842  0.00  0.00     0.104 C 
BRANCH  20  21
ATOM     21  C14 UNK d          -1.479   1.410  10.169  0.00  0.00    -0.037 C 
ATOM     22  C16 UNK d          -1.492   2.690  10.557  0.00  0.00    -0.003 C 
ENDBRANCH  20  21
ENDBRANCH   2  20
TORSDOF 7
ENDMDL
MODEL 9
REMARK VINA RESULT:      -7.8      2.519      6.395
REMARK  7 active torsions:
REMARK  status: ('A' for Active; 'I' for Inactive)
REMARK    1  A    between atoms: O_1  and  C6_9 
REMARK    2  A    between atoms: O1_2  and  C7_10 
REMARK    3  A    between atoms: C_3  and  C1_4 
REMARK    4  A    between atoms: C2_5  and  C8_11 
REMARK    5  A    between atoms: C3_6  and  C9_12 
REMARK    6  A    between atoms: C8_11  and  C14_17 
REMARK    7  A    between atoms: C9_12  and  C15_18 
ROOT
ATOM      1  C   UNK d          -3.644  -2.409   9.998  0.00  0.00    -0.048 A 
ATOM      2  C2  UNK d          -2.783  -0.535   8.739  0.00  0.00    -0.112 A 
ATOM      3  C4  UNK d          -2.641  -1.469   9.766  0.00  0.00     0.083 A 
ATOM      4  C6  UNK d          -4.791  -2.415   9.203  0.00  0.00     0.130 A 
ATOM      5  C10 UNK d          -3.930  -0.541   7.945  0.00  0.00     0.045 A 
ATOM      6  C12 UNK d          -4.933  -1.481   8.177  0.00  0.00    -0.083 A 
ENDROOT
BRANCH   1   7
ATOM      7  C1  UNK d          -3.479  -3.370  11.069  0.00  0.00    -0.048 A 
ATOM      8  C5  UNK d          -4.078  -3.123  12.304  0.00  0.00     0.083 A 
ATOM      9  C3  UNK d          -3.929  -4.036  13.348  0.00  0.00    -0.112 A 
ATOM     10  C11 UNK d          -3.180  -5.197  13.156  0.00  0.00     0.045 A 
ATOM     11  C13 UNK d          -2.581  -5.445  11.922  0.00  0.00    -0.083 A 
ATOM     12  C7  UNK d          -2.730  -4.532  10.878  0.00  0.00     0.130 A 
BRANCH   9  13
ATOM     13  C9  UNK d          -4.570  -3.771  14.668  0.00  0.00     0.104 C 
BRANCH  13  14
ATOM     14  C15 UNK d          -6.008  -4.217  14.725  0.00  0.00    -0.037 C 
ATOM     15  C17 UNK d          -6.598  -4.972  13.791  0.00  0.00    -0.003 C 
ENDBRANCH  13  14
ENDBRANCH   9  13
BRANCH  12  16
ATOM     16  O1  UNK d          -2.132  -4.798   9.682  0.00  0.00    -0.497 OA
ATOM     17  H13 UNK d          -1.172  -4.668   9.770  0.00  0.00     0.417 HD
ENDBRANCH  12  16
ENDBRANCH   1   7
BRANCH   4  18
ATOM     18  O   UNK d          -5.789  -3.321   9.409  0.00  0.00    -0.497 OA
ATOM     19  H12 UNK d          -5.878  -3.486  10.364  0.00  0.00     0.417 HD
ENDBRANCH   4  18
BRANCH   2  20
ATOM     20  C8  UNK d          -1.709   0.469   8.490  0.00  0.00     0.104 C 
BRANCH  20  21
ATOM     21  C14 UNK d          -2.228   1.752   7.894  0.00  0.00    -0.037 C 
ATOM     22  C16 UNK d          -1.699   2.958   8.130  0.00  0.00    -0.003 C 
ENDBRANCH  20  21
ENDBRANCH   2  20
TORSDOF 7
ENDMDL
