MODEL 1
REMARK VINA RESULT:      -9.3      0.000      0.000
REMARK  5 active torsions:
REMARK  status: ('A' for Active; 'I' for Inactive)
REMARK    1  A    between atoms: O1_2  and  C12_15 
REMARK    2  A    between atoms: C14_17  and  C16_19 
REMARK    3  A    between atoms: C16_19  and  C17_20 
REMARK    4  A    between atoms: C17_20  and  C18_21 
REMARK    5  A    between atoms: C18_21  and  C19_22 
ROOT
ATOM      1  O   UNK d          -0.690  -1.977  11.290  0.00  0.00    -0.328 OA
ATOM      2  C   UNK d          -2.295  -3.733  12.052  0.00  0.00    -0.167 C 
ATOM      3  C1  UNK d          -5.028  -4.440  12.700  0.00  0.00    -0.016 C 
ATOM      4  C2  UNK d          -0.844  -3.275  11.908  0.00  0.00     0.205 C 
ATOM      5  C3  UNK d          -3.285  -3.180  11.321  0.00  0.00    -0.003 C 
ATOM      6  C4  UNK d          -4.732  -3.594  11.450  0.00  0.00     0.097 C 
ATOM      7  C5  UNK d          -2.575  -4.861  13.027  0.00  0.00     0.066 C 
ATOM      8  C6  UNK d          -3.951  -5.509  12.865  0.00  0.00     0.012 C 
ATOM      9  C7  UNK d          -2.918  -2.142  10.341  0.00  0.00    -0.148 A 
ATOM     10  C8  UNK d          -1.634  -1.593  10.381  0.00  0.00     0.175 A 
ATOM     11  C9  UNK d          -6.419  -5.065  12.615  0.00  0.00     0.012 C 
ATOM     12  C10 UNK d          -0.162  -3.113  13.277  0.00  0.00     0.044 C 
ATOM     13  C11 UNK d          -0.042  -4.273  11.057  0.00  0.00     0.044 C 
ATOM     14  C12 UNK d          -3.811  -1.660   9.372  0.00  0.00     0.172 A 
ATOM     15  C13 UNK d          -1.257  -0.572   9.503  0.00  0.00    -0.042 A 
ATOM     16  C14 UNK d          -2.156  -0.103   8.550  0.00  0.00    -0.004 A 
ATOM     17  C15 UNK d          -3.432  -0.652   8.482  0.00  0.00    -0.119 A 
ENDROOT
BRANCH  16  18
ATOM     18  C16 UNK d          -1.752   0.977   7.606  0.00  0.00     0.061 C 
BRANCH  18  19
ATOM     19  C17 UNK d          -2.439   2.332   7.859  0.00  0.00     0.014 C 
BRANCH  19  20
ATOM     20  C18 UNK d          -1.664   3.215   8.843  0.00  0.00    -0.001 C 
BRANCH  20  21
ATOM     21  C19 UNK d          -2.310   3.193  10.229  0.00  0.00    -0.002 C 
ATOM     22  C20 UNK d          -1.263   3.111  11.330  0.00  0.00     0.006 C 
ENDBRANCH  20  21
ENDBRANCH  19  20
ENDBRANCH  18  19
ENDBRANCH  16  18
BRANCH  14  23
ATOM     23  O1  UNK d          -5.074  -2.145   9.187  0.00  0.00    -0.497 OA
ATOM     24  H24 UNK d          -5.517  -2.266  10.043  0.00  0.00     0.419 HD
ENDBRANCH  14  23
TORSDOF 5
ENDMDL
MODEL 2
REMARK VINA RESULT:      -8.4      2.002      6.839
REMARK  5 active torsions:
REMARK  status: ('A' for Active; 'I' for Inactive)
REMARK    1  A    between atoms: O1_2  and  C12_15 
REMARK    2  A    between atoms: C14_17  and  C16_19 
REMARK    3  A    between atoms: C16_19  and  C17_20 
REMARK    4  A    between atoms: C17_20  and  C18_21 
REMARK    5  A    between atoms: C18_21  and  C19_22 
ROOT
ATOM      1  O   UNK d          -4.648  -3.866   9.585  0.00  0.00    -0.328 OA
ATOM      2  C   UNK d          -4.096  -1.559   8.800  0.00  0.00    -0.167 C 
ATOM      3  C1  UNK d          -2.774   0.961   9.338  0.00  0.00    -0.016 C 
ATOM      4  C2  UNK d          -4.953  -2.814   8.641  0.00  0.00     0.205 C 
ATOM      5  C3  UNK d          -2.925  -1.585   9.470  0.00  0.00    -0.003 C 
ATOM      6  C4  UNK d          -2.061  -0.362   9.664  0.00  0.00     0.097 C 
ATOM      7  C5  UNK d          -4.598  -0.286   8.146  0.00  0.00     0.066 C 
ATOM      8  C6  UNK d          -3.549   0.821   8.031  0.00  0.00     0.012 C 
ATOM      9  C7  UNK d          -2.471  -2.879  10.010  0.00  0.00    -0.148 A 
ATOM     10  C8  UNK d          -3.364  -3.954  10.040  0.00  0.00     0.175 A 
ATOM     11  C9  UNK d          -1.775   2.114   9.269  0.00  0.00     0.012 C 
ATOM     12  C10 UNK d          -6.442  -2.519   8.888  0.00  0.00     0.044 C 
ATOM     13  C11 UNK d          -4.782  -3.413   7.234  0.00  0.00     0.044 C 
ATOM     14  C12 UNK d          -1.179  -3.082  10.519  0.00  0.00     0.172 A 
ATOM     15  C13 UNK d          -2.994  -5.186  10.588  0.00  0.00    -0.042 A 
ATOM     16  C14 UNK d          -1.709  -5.369  11.091  0.00  0.00    -0.004 A 
ATOM     17  C15 UNK d          -0.800  -4.317  11.051  0.00  0.00    -0.119 A 
ENDROOT
BRANCH  16  18
ATOM     18  C16 UNK d          -1.309  -6.684  11.665  0.00  0.00     0.061 C 
BRANCH  18  19
ATOM     19  C17 UNK d           0.136  -6.735  12.195  0.00  0.00     0.014 C 
BRANCH  19  20
ATOM     20  C18 UNK d           0.215  -7.176  13.660  0.00  0.00    -0.001 C 
BRANCH  20  21
ATOM     21  C19 UNK d           1.026  -6.182  14.493  0.00  0.00    -0.002 C 
ATOM     22  C20 UNK d           1.002  -4.791  13.880  0.00  0.00     0.006 C 
ENDBRANCH  20  21
ENDBRANCH  19  20
ENDBRANCH  18  19
ENDBRANCH  16  18
BRANCH  14  23
ATOM     23  O1  UNK d          -0.194  -2.137  10.501  0.00  0.00    -0.497 OA
ATOM     24  H24 UNK d           0.057  -1.895  11.408  0.00  0.00     0.419 HD
ENDBRANCH  14  23
TORSDOF 5
ENDMDL
MODEL 3
REMARK VINA RESULT:      -8.2      1.550      3.637
REMARK  5 active torsions:
REMARK  status: ('A' for Active; 'I' for Inactive)
REMARK    1  A    between atoms: O1_2  and  C12_15 
REMARK    2  A    between atoms: C14_17  and  C16_19 
REMARK    3  A    between atoms: C16_19  and  C17_20 
REMARK    4  A    between atoms: C17_20  and  C18_21 
REMARK    5  A    between atoms: C18_21  and  C19_22 
ROOT
ATOM      1  O   UNK d          -4.909  -3.543  11.786  0.00  0.00    -0.328 OA
ATOM      2  C   UNK d          -3.303  -4.777  13.249  0.00  0.00    -0.167 C 
ATOM      3  C1  UNK d          -0.838  -6.282  13.458  0.00  0.00    -0.016 C 
ATOM      4  C2  UNK d          -4.693  -4.167  13.072  0.00  0.00     0.205 C 
ATOM      5  C3  UNK d          -2.270  -4.417  12.460  0.00  0.00    -0.003 C 
ATOM      6  C4  UNK d          -0.887  -5.011  12.594  0.00  0.00     0.097 C 
ATOM      7  C5  UNK d          -3.121  -5.781  14.371  0.00  0.00     0.066 C 
ATOM      8  C6  UNK d          -1.663  -6.076  14.725  0.00  0.00     0.012 C 
ATOM      9  C7  UNK d          -2.511  -3.379  11.443  0.00  0.00    -0.148 A 
ATOM     10  C8  UNK d          -3.825  -2.998  11.158  0.00  0.00     0.175 A 
ATOM     11  C9  UNK d           0.605  -6.655  13.792  0.00  0.00     0.012 C 
ATOM     12  C10 UNK d          -5.796  -5.237  13.150  0.00  0.00     0.044 C 
ATOM     13  C11 UNK d          -4.954  -3.092  14.140  0.00  0.00     0.044 C 
ATOM     14  C12 UNK d          -1.476  -2.761  10.724  0.00  0.00     0.172 A 
ATOM     15  C13 UNK d          -4.105  -2.053  10.166  0.00  0.00    -0.042 A 
ATOM     16  C14 UNK d          -3.067  -1.452   9.461  0.00  0.00    -0.004 A 
ATOM     17  C15 UNK d          -1.751  -1.803   9.744  0.00  0.00    -0.119 A 
ENDROOT
BRANCH  16  18
ATOM     18  C16 UNK d          -3.363  -0.437   8.412  0.00  0.00     0.061 C 
BRANCH  18  19
ATOM     19  C17 UNK d          -2.116   0.217   7.788  0.00  0.00     0.014 C 
BRANCH  19  20
ATOM     20  C18 UNK d          -2.087   1.737   7.975  0.00  0.00    -0.001 C 
BRANCH  20  21
ATOM     21  C19 UNK d          -2.551   2.130   9.377  0.00  0.00    -0.002 C 
ATOM     22  C20 UNK d          -1.374   2.337  10.317  0.00  0.00     0.006 C 
ENDBRANCH  20  21
ENDBRANCH  19  20
ENDBRANCH  18  19
ENDBRANCH  16  18
BRANCH  14  23
ATOM     23  O1  UNK d          -0.149  -2.998  10.939  0.00  0.00    -0.497 OA
ATOM     24  H24 UNK d           0.188  -2.419  11.643  0.00  0.00     0.419 HD
ENDBRANCH  14  23
TORSDOF 5
ENDMDL
MODEL 4
REMARK VINA RESULT:      -7.8      1.749      4.110
REMARK  5 active torsions:
REMARK  status: ('A' for Active; 'I' for Inactive)
REMARK    1  A    between atoms: O1_2  and  C12_15 
REMARK    2  A    between atoms: C14_17  and  C16_19 
REMARK    3  A    between atoms: C16_19  and  C17_20 
REMARK    4  A    between atoms: C17_20  and  C18_21 
REMARK    5  A    between atoms: C18_21  and  C19_22 
ROOT
ATOM      1  O   UNK d          -4.269  -3.375  11.710  0.00  0.00    -0.328 OA
ATOM      2  C   UNK d          -3.389  -5.167  13.212  0.00  0.00    -0.167 C 
ATOM      3  C1  UNK d          -1.511  -7.337  13.598  0.00  0.00    -0.016 C 
ATOM      4  C2  UNK d          -4.499  -4.165  12.899  0.00  0.00     0.205 C 
ATOM      5  C3  UNK d          -2.157  -5.044  12.678  0.00  0.00    -0.003 C 
ATOM      6  C4  UNK d          -1.041  -6.025  12.950  0.00  0.00     0.097 C 
ATOM      7  C5  UNK d          -3.718  -6.291  14.176  0.00  0.00     0.066 C 
ATOM      8  C6  UNK d          -2.497  -7.032  14.722  0.00  0.00     0.012 C 
ATOM      9  C7  UNK d          -1.897  -3.881  11.811  0.00  0.00    -0.148 A 
ATOM     10  C8  UNK d          -2.974  -3.107  11.371  0.00  0.00     0.175 A 
ATOM     11  C9  UNK d          -0.321  -8.146  14.111  0.00  0.00     0.012 C 
ATOM     12  C10 UNK d          -5.837  -4.870  12.617  0.00  0.00     0.044 C 
ATOM     13  C11 UNK d          -4.683  -3.177  14.063  0.00  0.00     0.044 C 
ATOM     14  C12 UNK d          -0.608  -3.519  11.387  0.00  0.00     0.172 A 
ATOM     15  C13 UNK d          -2.780  -2.024  10.507  0.00  0.00    -0.042 A 
ATOM     16  C14 UNK d          -1.496  -1.681  10.094  0.00  0.00    -0.004 A 
ATOM     17  C15 UNK d          -0.410  -2.427  10.538  0.00  0.00    -0.119 A 
ENDROOT
BRANCH  16  18
ATOM     18  C16 UNK d          -1.288  -0.521   9.183  0.00  0.00     0.061 C 
BRANCH  18  19
ATOM     19  C17 UNK d          -2.307   0.620   9.360  0.00  0.00     0.014 C 
BRANCH  19  20
ATOM     20  C18 UNK d          -3.231   0.783   8.149  0.00  0.00    -0.001 C 
BRANCH  20  21
ATOM     21  C19 UNK d          -4.671   0.405   8.498  0.00  0.00    -0.002 C 
ATOM     22  C20 UNK d          -4.962  -1.050   8.166  0.00  0.00     0.006 C 
ENDBRANCH  20  21
ENDBRANCH  19  20
ENDBRANCH  18  19
ENDBRANCH  16  18
BRANCH  14  23
ATOM     23  O1  UNK d           0.533  -4.153  11.785  0.00  0.00    -0.497 OA
ATOM     24  H24 UNK d           1.091  -4.357  11.015  0.00  0.00     0.419 HD
ENDBRANCH  14  23
TORSDOF 5
ENDMDL
MODEL 5
REMARK VINA RESULT:      -7.6      1.425      2.063
REMARK  5 active torsions:
REMARK  status: ('A' for Active; 'I' for Inactive)
REMARK    1  A    between atoms: O1_2  and  C12_15 
REMARK    2  A    between atoms: C14_17  and  C16_19 
REMARK    3  A    between atoms: C16_19  and  C17_20 
REMARK    4  A    between atoms: C17_20  and  C18_21 
REMARK    5  A    between atoms: C18_21  and  C19_22 
ROOT
ATOM      1  O   UNK d           0.031  -3.169  12.120  0.00  0.00    -0.328 OA
ATOM      2  C   UNK d          -1.465  -4.825  13.245  0.00  0.00    -0.167 C 
ATOM      3  C1  UNK d          -4.022  -5.366  14.491  0.00  0.00    -0.016 C 
ATOM      4  C2  UNK d          -0.058  -4.454  12.777  0.00  0.00     0.205 C 
ATOM      5  C3  UNK d          -2.558  -4.215  12.742  0.00  0.00    -0.003 C 
ATOM      6  C4  UNK d          -3.962  -4.542  13.194  0.00  0.00     0.097 C 
ATOM      7  C5  UNK d          -1.586  -5.931  14.275  0.00  0.00     0.066 C 
ATOM      8  C6  UNK d          -2.999  -6.496  14.431  0.00  0.00     0.012 C 
ATOM      9  C7  UNK d          -2.358  -3.204  11.690  0.00  0.00    -0.148 A 
ATOM     10  C8  UNK d          -1.067  -2.732  11.436  0.00  0.00     0.175 A 
ATOM     11  C9  UNK d          -5.431  -5.907  14.725  0.00  0.00     0.012 C 
ATOM     12  C10 UNK d           0.919  -4.330  13.959  0.00  0.00     0.044 C 
ATOM     13  C11 UNK d           0.478  -5.500  11.786  0.00  0.00     0.044 C 
ATOM     14  C12 UNK d          -3.414  -2.671  10.934  0.00  0.00     0.172 A 
ATOM     15  C13 UNK d          -0.836  -1.737  10.481  0.00  0.00    -0.042 A 
ATOM     16  C14 UNK d          -1.895  -1.218   9.743  0.00  0.00    -0.004 A 
ATOM     17  C15 UNK d          -3.184  -1.689   9.966  0.00  0.00    -0.119 A 
ENDROOT
BRANCH  16  18
ATOM     18  C16 UNK d          -1.649  -0.166   8.717  0.00  0.00     0.061 C 
BRANCH  18  19
ATOM     19  C17 UNK d          -1.630   1.272   9.270  0.00  0.00     0.014 C 
BRANCH  19  20
ATOM     20  C18 UNK d          -2.791   2.123   8.746  0.00  0.00    -0.001 C 
BRANCH  20  21
ATOM     21  C19 UNK d          -2.311   3.512   8.325  0.00  0.00    -0.002 C 
ATOM     22  C20 UNK d          -2.104   3.597   6.820  0.00  0.00     0.006 C 
ENDBRANCH  20  21
ENDBRANCH  19  20
ENDBRANCH  18  19
ENDBRANCH  16  18
BRANCH  14  23
ATOM     23  O1  UNK d          -4.712  -3.080  11.040  0.00  0.00    -0.497 OA
ATOM     24  H24 UNK d          -5.022  -3.442  10.193  0.00  0.00     0.419 HD
ENDBRANCH  14  23
TORSDOF 5
ENDMDL
MODEL 6
REMARK VINA RESULT:      -7.2      1.502      3.555
REMARK  5 active torsions:
REMARK  status: ('A' for Active; 'I' for Inactive)
REMARK    1  A    between atoms: O1_2  and  C12_15 
REMARK    2  A    between atoms: C14_17  and  C16_19 
REMARK    3  A    between atoms: C16_19  and  C17_20 
REMARK    4  A    between atoms: C17_20  and  C18_21 
REMARK    5  A    between atoms: C18_21  and  C19_22 
ROOT
ATOM      1  O   UNK d          -4.209  -1.823   7.627  0.00  0.00    -0.328 OA
ATOM      2  C   UNK d          -3.961  -3.501   9.462  0.00  0.00    -0.167 C 
ATOM      3  C1  UNK d          -2.187  -4.951  11.233  0.00  0.00    -0.016 C 
ATOM      4  C2  UNK d          -4.844  -2.882   8.378  0.00  0.00     0.205 C 
ATOM      5  C3  UNK d          -2.871  -2.862   9.933  0.00  0.00    -0.003 C 
ATOM      6  C4  UNK d          -1.965  -3.449  10.989  0.00  0.00     0.097 C 
ATOM      7  C5  UNK d          -4.378  -4.851  10.012  0.00  0.00     0.066 C 
ATOM      8  C6  UNK d          -3.683  -5.244  11.316  0.00  0.00     0.012 C 
ATOM      9  C7  UNK d          -2.578  -1.519   9.399  0.00  0.00    -0.148 A 
ATOM     10  C8  UNK d          -3.265  -1.072   8.268  0.00  0.00     0.175 A 
ATOM     11  C9  UNK d          -1.462  -5.409  12.497  0.00  0.00     0.012 C 
ATOM     12  C10 UNK d          -5.230  -3.914   7.304  0.00  0.00     0.044 C 
ATOM     13  C11 UNK d          -6.123  -2.290   8.993  0.00  0.00     0.044 C 
ATOM     14  C12 UNK d          -1.617  -0.667   9.966  0.00  0.00     0.172 A 
ATOM     15  C13 UNK d          -2.986   0.174   7.697  0.00  0.00    -0.042 A 
ATOM     16  C14 UNK d          -2.028   1.005   8.271  0.00  0.00    -0.004 A 
ATOM     17  C15 UNK d          -1.348   0.586   9.409  0.00  0.00    -0.119 A 
ENDROOT
BRANCH  16  18
ATOM     18  C16 UNK d          -1.737   2.338   7.671  0.00  0.00     0.061 C 
BRANCH  18  19
ATOM     19  C17 UNK d          -2.093   3.534   8.573  0.00  0.00     0.014 C 
BRANCH  19  20
ATOM     20  C18 UNK d          -1.234   3.597   9.840  0.00  0.00    -0.001 C 
BRANCH  20  21
ATOM     21  C19 UNK d          -2.101   3.544  11.098  0.00  0.00    -0.002 C 
ATOM     22  C20 UNK d          -1.269   3.252  12.337  0.00  0.00     0.006 C 
ENDBRANCH  20  21
ENDBRANCH  19  20
ENDBRANCH  18  19
ENDBRANCH  16  18
BRANCH  14  23
ATOM     23  O1  UNK d          -0.914  -0.955  11.100  0.00  0.00    -0.497 OA
ATOM     24  H24 UNK d           0.007  -1.169  10.880  0.00  0.00     0.419 HD
ENDBRANCH  14  23
TORSDOF 5
ENDMDL
MODEL 7
REMARK VINA RESULT:      -6.9      2.374      6.654
REMARK  5 active torsions:
REMARK  status: ('A' for Active; 'I' for Inactive)
REMARK    1  A    between atoms: O1_2  and  C12_15 
REMARK    2  A    between atoms: C14_17  and  C16_19 
REMARK    3  A    between atoms: C16_19  and  C17_20 
REMARK    4  A    between atoms: C17_20  and  C18_21 
REMARK    5  A    between atoms: C18_21  and  C19_22 
ROOT
ATOM      1  O   UNK d          -3.675  -4.716  12.944  0.00  0.00    -0.328 OA
ATOM      2  C   UNK d          -4.487  -3.526  10.902  0.00  0.00    -0.167 C 
ATOM      3  C1  UNK d          -4.354  -1.169   9.225  0.00  0.00    -0.016 C 
ATOM      4  C2  UNK d          -4.687  -4.654  11.914  0.00  0.00     0.205 C 
ATOM      5  C3  UNK d          -3.291  -2.921  10.750  0.00  0.00    -0.003 C 
ATOM      6  C4  UNK d          -3.059  -1.791   9.774  0.00  0.00     0.097 C 
ATOM      7  C5  UNK d          -5.679  -3.135  10.050  0.00  0.00     0.066 C 
ATOM      8  C6  UNK d          -5.331  -2.275   8.835  0.00  0.00     0.012 C 
ATOM      9  C7  UNK d          -2.164  -3.412  11.563  0.00  0.00    -0.148 A 
ATOM     10  C8  UNK d          -2.419  -4.286  12.622  0.00  0.00     0.175 A 
ATOM     11  C9  UNK d          -4.055  -0.252   8.041  0.00  0.00     0.012 C 
ATOM     12  C10 UNK d          -5.999  -4.485  12.699  0.00  0.00     0.044 C 
ATOM     13  C11 UNK d          -4.692  -6.021  11.209  0.00  0.00     0.044 C 
ATOM     14  C12 UNK d          -0.834  -3.025  11.334  0.00  0.00     0.172 A 
ATOM     15  C13 UNK d          -1.388  -4.738  13.451  0.00  0.00    -0.042 A 
ATOM     16  C14 UNK d          -0.075  -4.343  13.212  0.00  0.00    -0.004 A 
ATOM     17  C15 UNK d           0.202  -3.489  12.149  0.00  0.00    -0.119 A 
ENDROOT
BRANCH  16  18
ATOM     18  C16 UNK d           1.027  -4.833  14.087  0.00  0.00     0.061 C 
BRANCH  18  19
ATOM     19  C17 UNK d           0.897  -6.309  14.507  0.00  0.00     0.014 C 
BRANCH  19  20
ATOM     20  C18 UNK d           0.625  -7.241  13.321  0.00  0.00    -0.001 C 
BRANCH  20  21
ATOM     21  C19 UNK d          -0.648  -8.057  13.541  0.00  0.00    -0.002 C 
ATOM     22  C20 UNK d          -1.443  -8.208  12.253  0.00  0.00     0.006 C 
ENDBRANCH  20  21
ENDBRANCH  19  20
ENDBRANCH  18  19
ENDBRANCH  16  18
BRANCH  14  23
ATOM     23  O1  UNK d          -0.438  -2.222  10.303  0.00  0.00    -0.497 OA
ATOM     24  H24 UNK d           0.179  -2.699   9.722  0.00  0.00     0.419 HD
ENDBRANCH  14  23
TORSDOF 5
ENDMDL
