MODEL 1
REMARK VINA RESULT:      -8.4      0.000      0.000
REMARK  5 active torsions:
REMARK  status: ('A' for Active; 'I' for Inactive)
REMARK    1  A    between atoms: O1_2  and  C12_15 
REMARK    2  A    between atoms: C14_17  and  C16_19 
REMARK    3  A    between atoms: C16_19  and  C17_20 
REMARK    4  A    between atoms: C17_20  and  C18_21 
REMARK    5  A    between atoms: C18_21  and  C19_22 
ROOT
ATOM      1  O   UNK d          -0.575  -2.378  11.029  0.00  0.00    -0.328 OA
ATOM      2  C   UNK d          -2.395  -3.581  12.247  0.00  0.00    -0.167 C 
ATOM      3  C1  UNK d          -4.928  -4.976  12.110  0.00  0.00    -0.016 C 
ATOM      4  C2  UNK d          -0.968  -3.030  12.257  0.00  0.00     0.205 C 
ATOM      5  C3  UNK d          -3.309  -3.150  11.355  0.00  0.00    -0.003 C 
ATOM      6  C4  UNK d          -4.722  -3.684  11.302  0.00  0.00     0.097 C 
ATOM      7  C5  UNK d          -2.751  -4.608  13.305  0.00  0.00     0.066 C 
ATOM      8  C6  UNK d          -4.253  -4.845  13.472  0.00  0.00     0.012 C 
ATOM      9  C7  UNK d          -2.904  -2.095  10.409  0.00  0.00    -0.148 A 
ATOM     10  C8  UNK d          -1.551  -1.766  10.296  0.00  0.00     0.175 A 
ATOM     11  C9  UNK d          -6.415  -5.292  12.258  0.00  0.00     0.012 C 
ATOM     12  C10 UNK d           0.070  -4.151  12.428  0.00  0.00     0.044 C 
ATOM     13  C11 UNK d          -0.792  -2.001  13.386  0.00  0.00     0.044 C 
ATOM     14  C12 UNK d          -3.819  -1.409   9.595  0.00  0.00     0.172 A 
ATOM     15  C13 UNK d          -1.114  -0.806   9.377  0.00  0.00    -0.042 A 
ATOM     16  C14 UNK d          -2.034  -0.138   8.575  0.00  0.00    -0.004 A 
ATOM     17  C15 UNK d          -3.388  -0.437   8.687  0.00  0.00    -0.119 A 
ENDROOT
BRANCH  16  18
ATOM     18  C16 UNK d          -1.571   0.893   7.604  0.00  0.00     0.061 C 
BRANCH  18  19
ATOM     19  C17 UNK d          -2.298   2.245   7.716  0.00  0.00     0.014 C 
BRANCH  19  20
ATOM     20  C18 UNK d          -1.599   3.218   8.670  0.00  0.00    -0.001 C 
BRANCH  20  21
ATOM     21  C19 UNK d          -2.311   3.276  10.022  0.00  0.00    -0.002 C 
ATOM     22  C20 UNK d          -1.384   2.869  11.157  0.00  0.00     0.006 C 
ENDBRANCH  20  21
ENDBRANCH  19  20
ENDBRANCH  18  19
ENDBRANCH  16  18
BRANCH  14  23
ATOM     23  O1  UNK d          -5.171  -1.591   9.642  0.00  0.00    -0.497 OA
ATOM     24  H24 UNK d          -5.418  -2.083  10.443  0.00  0.00     0.419 HD
ENDBRANCH  14  23
TORSDOF 5
ENDMDL
MODEL 2
REMARK VINA RESULT:      -8.3      2.033      6.960
REMARK  5 active torsions:
REMARK  status: ('A' for Active; 'I' for Inactive)
REMARK    1  A    between atoms: O1_2  and  C12_15 
REMARK    2  A    between atoms: C14_17  and  C16_19 
REMARK    3  A    between atoms: C16_19  and  C17_20 
REMARK    4  A    between atoms: C17_20  and  C18_21 
REMARK    5  A    between atoms: C18_21  and  C19_22 
ROOT
ATOM      1  O   UNK d          -4.181  -4.163   9.106  0.00  0.00    -0.328 OA
ATOM      2  C   UNK d          -3.839  -1.706   8.814  0.00  0.00    -0.167 C 
ATOM      3  C1  UNK d          -2.007   0.536   8.862  0.00  0.00    -0.016 C 
ATOM      4  C2  UNK d          -4.729  -2.930   8.591  0.00  0.00     0.205 C 
ATOM      5  C3  UNK d          -2.857  -1.708   9.738  0.00  0.00    -0.003 C 
ATOM      6  C4  UNK d          -1.946  -0.525   9.972  0.00  0.00     0.097 C 
ATOM      7  C5  UNK d          -4.128  -0.475   7.976  0.00  0.00     0.066 C 
ATOM      8  C6  UNK d          -3.462   0.804   8.485  0.00  0.00     0.012 C 
ATOM      9  C7  UNK d          -2.691  -2.918  10.562  0.00  0.00    -0.148 A 
ATOM     10  C8  UNK d          -3.364  -4.087  10.198  0.00  0.00     0.175 A 
ATOM     11  C9  UNK d          -1.303   1.819   9.298  0.00  0.00     0.012 C 
ATOM     12  C10 UNK d          -4.935  -3.215   7.095  0.00  0.00     0.044 C 
ATOM     13  C11 UNK d          -6.098  -2.734   9.263  0.00  0.00     0.044 C 
ATOM     14  C12 UNK d          -1.866  -2.959  11.697  0.00  0.00     0.172 A 
ATOM     15  C13 UNK d          -3.199  -5.273  10.922  0.00  0.00    -0.042 A 
ATOM     16  C14 UNK d          -2.375  -5.296  12.043  0.00  0.00    -0.004 A 
ATOM     17  C15 UNK d          -1.712  -4.138  12.433  0.00  0.00    -0.119 A 
ENDROOT
BRANCH  16  18
ATOM     18  C16 UNK d          -2.207  -6.555  12.822  0.00  0.00     0.061 C 
BRANCH  18  19
ATOM     19  C17 UNK d          -1.236  -7.570  12.191  0.00  0.00     0.014 C 
BRANCH  19  20
ATOM     20  C18 UNK d           0.234  -7.206  12.420  0.00  0.00    -0.001 C 
BRANCH  20  21
ATOM     21  C19 UNK d           0.548  -7.076  13.910  0.00  0.00    -0.002 C 
ATOM     22  C20 UNK d           1.146  -5.717  14.237  0.00  0.00     0.006 C 
ENDBRANCH  20  21
ENDBRANCH  19  20
ENDBRANCH  18  19
ENDBRANCH  16  18
BRANCH  14  23
ATOM     23  O1  UNK d          -1.196  -1.879  12.195  0.00  0.00    -0.497 OA
ATOM     24  H24 UNK d          -0.338  -1.779  11.749  0.00  0.00     0.419 HD
ENDBRANCH  14  23
TORSDOF 5
ENDMDL
MODEL 3
REMARK VINA RESULT:      -7.3      1.940      2.741
REMARK  5 active torsions:
REMARK  status: ('A' for Active; 'I' for Inactive)
REMARK    1  A    between atoms: O1_2  and  C12_15 
REMARK    2  A    between atoms: C14_17  and  C16_19 
REMARK    3  A    between atoms: C16_19  and  C17_20 
REMARK    4  A    between atoms: C17_20  and  C18_21 
REMARK    5  A    between atoms: C18_21  and  C19_22 
ROOT
ATOM      1  O   UNK d          -1.021  -2.288  12.019  0.00  0.00    -0.328 OA
ATOM      2  C   UNK d          -1.283  -4.563  13.018  0.00  0.00    -0.167 C 
ATOM      3  C1  UNK d          -1.679  -7.398  12.585  0.00  0.00    -0.016 C 
ATOM      4  C2  UNK d          -0.867  -3.103  13.202  0.00  0.00     0.205 C 
ATOM      5  C3  UNK d          -2.081  -4.945  11.999  0.00  0.00    -0.003 C 
ATOM      6  C4  UNK d          -2.497  -6.380  11.774  0.00  0.00     0.097 C 
ATOM      7  C5  UNK d          -0.791  -5.562  14.048  0.00  0.00     0.066 C 
ATOM      8  C6  UNK d          -1.520  -6.906  14.020  0.00  0.00     0.012 C 
ATOM      9  C7  UNK d          -2.577  -3.900  11.086  0.00  0.00    -0.148 A 
ATOM     10  C8  UNK d          -2.015  -2.622  11.145  0.00  0.00     0.175 A 
ATOM     11  C9  UNK d          -2.335  -8.777  12.542  0.00  0.00     0.012 C 
ATOM     12  C10 UNK d           0.627  -2.980  13.543  0.00  0.00     0.044 C 
ATOM     13  C11 UNK d          -1.695  -2.439  14.314  0.00  0.00     0.044 C 
ATOM     14  C12 UNK d          -3.584  -4.134  10.137  0.00  0.00     0.172 A 
ATOM     15  C13 UNK d          -2.420  -1.613  10.265  0.00  0.00    -0.042 A 
ATOM     16  C14 UNK d          -3.418  -1.863   9.328  0.00  0.00    -0.004 A 
ATOM     17  C15 UNK d          -4.004  -3.123   9.267  0.00  0.00    -0.119 A 
ENDROOT
BRANCH  16  18
ATOM     18  C16 UNK d          -3.858  -0.785   8.397  0.00  0.00     0.061 C 
BRANCH  18  19
ATOM     19  C17 UNK d          -2.754   0.218   8.016  0.00  0.00     0.014 C 
BRANCH  19  20
ATOM     20  C18 UNK d          -3.140   1.669   8.318  0.00  0.00    -0.001 C 
BRANCH  20  21
ATOM     21  C19 UNK d          -1.909   2.575   8.349  0.00  0.00    -0.002 C 
ATOM     22  C20 UNK d          -1.890   3.530   7.166  0.00  0.00     0.006 C 
ENDBRANCH  20  21
ENDBRANCH  19  20
ENDBRANCH  18  19
ENDBRANCH  16  18
BRANCH  14  23
ATOM     23  O1  UNK d          -4.255  -5.316  10.009  0.00  0.00    -0.497 OA
ATOM     24  H24 UNK d          -3.910  -5.970  10.640  0.00  0.00     0.419 HD
ENDBRANCH  14  23
TORSDOF 5
ENDMDL
MODEL 4
REMARK VINA RESULT:      -7.2      2.224      6.540
REMARK  5 active torsions:
REMARK  status: ('A' for Active; 'I' for Inactive)
REMARK    1  A    between atoms: O1_2  and  C12_15 
REMARK    2  A    between atoms: C14_17  and  C16_19 
REMARK    3  A    between atoms: C16_19  and  C17_20 
REMARK    4  A    between atoms: C17_20  and  C18_21 
REMARK    5  A    between atoms: C18_21  and  C19_22 
ROOT
ATOM      1  O   UNK d          -1.070  -1.217  11.387  0.00  0.00    -0.328 OA
ATOM      2  C   UNK d          -2.728  -1.246   9.519  0.00  0.00    -0.167 C 
ATOM      3  C1  UNK d          -5.353  -2.033   8.585  0.00  0.00    -0.016 C 
ATOM      4  C2  UNK d          -1.441  -0.664  10.105  0.00  0.00     0.205 C 
ATOM      5  C3  UNK d          -3.230  -2.421   9.951  0.00  0.00    -0.003 C 
ATOM      6  C4  UNK d          -4.509  -3.018   9.409  0.00  0.00     0.097 C 
ATOM      7  C5  UNK d          -3.401  -0.466   8.406  0.00  0.00     0.066 C 
ATOM      8  C6  UNK d          -4.453  -1.258   7.628  0.00  0.00     0.012 C 
ATOM      9  C7  UNK d          -2.475  -3.154  10.983  0.00  0.00    -0.148 A 
ATOM     10  C8  UNK d          -1.432  -2.507  11.649  0.00  0.00     0.175 A 
ATOM     11  C9  UNK d          -6.460  -2.767   7.831  0.00  0.00     0.012 C 
ATOM     12  C10 UNK d          -1.575   0.843  10.378  0.00  0.00     0.044 C 
ATOM     13  C11 UNK d          -0.256  -0.903   9.155  0.00  0.00     0.044 C 
ATOM     14  C12 UNK d          -2.768  -4.478  11.345  0.00  0.00     0.172 A 
ATOM     15  C13 UNK d          -0.719  -3.146  12.670  0.00  0.00    -0.042 A 
ATOM     16  C14 UNK d          -1.025  -4.458  13.019  0.00  0.00    -0.004 A 
ATOM     17  C15 UNK d          -2.047  -5.126  12.352  0.00  0.00    -0.119 A 
ENDROOT
BRANCH  16  18
ATOM     18  C16 UNK d          -0.259  -5.144  14.098  0.00  0.00     0.061 C 
BRANCH  18  19
ATOM     19  C17 UNK d           0.601  -6.326  13.616  0.00  0.00     0.014 C 
BRANCH  19  20
ATOM     20  C18 UNK d           0.393  -7.592  14.453  0.00  0.00    -0.001 C 
BRANCH  20  21
ATOM     21  C19 UNK d          -1.094  -7.914  14.610  0.00  0.00    -0.002 C 
ATOM     22  C20 UNK d          -1.629  -8.677  13.409  0.00  0.00     0.006 C 
ENDBRANCH  20  21
ENDBRANCH  19  20
ENDBRANCH  18  19
ENDBRANCH  16  18
BRANCH  14  23
ATOM     23  O1  UNK d          -3.722  -5.244  10.739  0.00  0.00    -0.497 OA
ATOM     24  H24 UNK d          -4.594  -4.822  10.818  0.00  0.00     0.419 HD
ENDBRANCH  14  23
TORSDOF 5
ENDMDL
MODEL 5
REMARK VINA RESULT:      -6.1      1.522      3.676
REMARK  5 active torsions:
REMARK  status: ('A' for Active; 'I' for Inactive)
REMARK    1  A    between atoms: O1_2  and  C12_15 
REMARK    2  A    between atoms: C14_17  and  C16_19 
REMARK    3  A    between atoms: C16_19  and  C17_20 
REMARK    4  A    between atoms: C17_20  and  C18_21 
REMARK    5  A    between atoms: C18_21  and  C19_22 
ROOT
ATOM      1  O   UNK d          -3.970  -2.774  12.201  0.00  0.00    -0.328 OA
ATOM      2  C   UNK d          -2.582  -4.517  13.331  0.00  0.00    -0.167 C 
ATOM      3  C1  UNK d           0.001  -5.287  14.387  0.00  0.00    -0.016 C 
ATOM      4  C2  UNK d          -3.974  -4.004  12.958  0.00  0.00     0.205 C 
ATOM      5  C3  UNK d          -1.479  -4.093  12.681  0.00  0.00    -0.003 C 
ATOM      6  C4  UNK d          -0.086  -4.563  13.035  0.00  0.00     0.097 C 
ATOM      7  C5  UNK d          -2.495  -5.550  14.439  0.00  0.00     0.066 C 
ATOM      8  C6  UNK d          -1.153  -6.278  14.517  0.00  0.00     0.012 C 
ATOM      9  C7  UNK d          -1.657  -3.146  11.567  0.00  0.00    -0.148 A 
ATOM     10  C8  UNK d          -2.900  -2.534  11.388  0.00  0.00     0.175 A 
ATOM     11  C9  UNK d           1.350  -5.986  14.543  0.00  0.00     0.012 C 
ATOM     12  C10 UNK d          -4.806  -3.668  14.206  0.00  0.00     0.044 C 
ATOM     13  C11 UNK d          -4.727  -5.045  12.114  0.00  0.00     0.044 C 
ATOM     14  C12 UNK d          -0.624  -2.813  10.678  0.00  0.00     0.172 A 
ATOM     15  C13 UNK d          -3.103  -1.591  10.374  0.00  0.00    -0.042 A 
ATOM     16  C14 UNK d          -2.066  -1.270   9.502  0.00  0.00    -0.004 A 
ATOM     17  C15 UNK d          -0.827  -1.885   9.652  0.00  0.00    -0.119 A 
ENDROOT
BRANCH  16  18
ATOM     18  C16 UNK d          -2.283  -0.275   8.415  0.00  0.00     0.061 C 
BRANCH  18  19
ATOM     19  C17 UNK d          -3.447   0.701   8.667  0.00  0.00     0.014 C 
BRANCH  19  20
ATOM     20  C18 UNK d          -2.997   2.002   9.338  0.00  0.00    -0.001 C 
BRANCH  20  21
ATOM     21  C19 UNK d          -1.657   1.821  10.053  0.00  0.00    -0.002 C 
ATOM     22  C20 UNK d          -1.313   3.033  10.905  0.00  0.00     0.006 C 
ENDBRANCH  20  21
ENDBRANCH  19  20
ENDBRANCH  18  19
ENDBRANCH  16  18
BRANCH  14  23
ATOM     23  O1  UNK d           0.619  -3.376  10.703  0.00  0.00    -0.497 OA
ATOM     24  H24 UNK d           0.573  -4.280  11.057  0.00  0.00     0.419 HD
ENDBRANCH  14  23
TORSDOF 5
ENDMDL
